è„šæœ¬å¯åŠ¨äºŽ 2019å¹´07æœˆ15æ—¥ æ˜ŸæœŸä¸€ 20æ—¶53åˆ†04ç§’
]0;root@server2: /home/server2/stx-gem/gem5-11688root@server2:/home/server2/stx-gem/gem5-11688# build/X86/gem5.opt --stats-file=LRU_lbm. txt ./configs/example/se_benchmark_spec06.py --benchmark=lbm --mem-type=NVMainMemory -- nvmain-config=nvmain/Config/Hybrid_example.config --cpu-clock=2GHz --cpu-type=detailed  -I 100000000 --caches --l1i_size=32kB --l1d_size=64kB --l2cache --l2_size=1MB
gem5 Simulator System.  http://gem5.org
gem5 is copyrighted software; use the --copyright option for details.

gem5 compiled Jul 15 2019 17:16:36
gem5 started Jul 15 2019 20:53:37
gem5 executing on server2, pid 28155
command line: build/X86/gem5.opt --stats-file=LRU_lbm.txt ./configs/example/se_benchmark_spec06.py --benchmark=lbm --mem-type=NVMainMemory --nvmain-config=nvmain/Config/Hybrid_example.config --cpu-clock=2GHz --cpu-type=detailed -I 100000000 --caches --l1i_size=32kB --l1d_size=64kB --l2cache --l2_size=1MB

Selected SPEC_CPU2006 benchmark
--> lbm
['/home/server2/stx-gem/spec06/spec06-x86/benchspec/CPU2006/470.lbm/exe/lbm_base.amd64-m64-gcc42-nn', '20', 'reference.dat', '0', '1', '/home/server2/stx-gem/spec06/spec06-x86/benchspec/CPU2006/470.lbm/data/ref/input/100_100_130_ldc.of']
Global frequency set at 1000000000000 ticks per second
NVMainControl: Reading NVMain config file: nvmain/Config/Hybrid_example.config.
Config: Warning: Key BusWidth is not set. Using '-1' as the default. Please configure this value if this is wrong.
Config: Warning: Key tBURST is not set. Using '-1' as the default. Please configure this value if this is wrong.
Config: Warning: Key RATE is not set. Using '-1' as the default. Please configure this value if this is wrong.
0: system.remote_gdb.listener: listening for remote gdb #0 on port 7001
Creating hook CoinMigrator
Config: Warning: Key MigrationBufferReadLatency is not set. Using '4' as the default. Please configure this value if this is wrong.
NVMain: GlobalEventQueue: Added a memory subsystem running at 667MHz. My frequency is 2000MHz.
Config: Warning: Key DeviceWidth is not set. Using '8' as the default. Please configure this value if this is wrong.
Config: Warning: Key EIDD0 is not set. Using '85' as the default. Please configure this value if this is wrong.
Config: Warning: Key EIDD1 is not set. Using '54' as the default. Please configure this value if this is wrong.
Config: Warning: Key EIDD2P0 is not set. Using '30' as the default. Please configure this value if this is wrong.
Config: Warning: Key EIDD2P1 is not set. Using '30' as the default. Please configure this value if this is wrong.
Config: Warning: Key EIDD2N is not set. Using '37' as the default. Please configure this value if this is wrong.
Config: Warning: Key EIDD3P is not set. Using '35' as the default. Please configure this value if this is wrong.
Config: Warning: Key EIDD3N is not set. Using '40' as the default. Please configure this value if this is wrong.
Config: Warning: Key EIDD4R is not set. Using '160' as the default. Please configure this value if this is wrong.
Config: Warning: Key EIDD4W is not set. Using '165' as the default. Please configure this value if this is wrong.
Config: Warning: Key EIDD5B is not set. Using '200' as the default. Please configure this value if this is wrong.
Config: Warning: Key EIDD6 is not set. Using '12' as the default. Please configure this value if this is wrong.
Config: Warning: Key Eopenrd is not set. Using '1.08108' as the default. Please configure this value if this is wrong.
Config: Warning: Key Erd is not set. Using '3.4054' as the default. Please configure this value if this is wrong.
Config: Warning: Key Eref is not set. Using '38.5585' as the default. Please configure this value if this is wrong.
Config: Warning: Key Ewr is not set. Using '1.02375' as the default. Please configure this value if this is wrong.
Config: Warning: Key Ewrpb is not set. Using '0.00199951' as the default. Please configure this value if this is wrong.
Config: Warning: Key Eactstdby is not set. Using '0.09009' as the default. Please configure this value if this is wrong.
Config: Warning: Key Eprestdby is not set. Using '0.083333' as the default. Please configure this value if this is wrong.
Config: Warning: Key Epda is not set. Using '0' as the default. Please configure this value if this is wrong.
Config: Warning: Key Epdpf is not set. Using '0' as the default. Please configure this value if this is wrong.
Config: Warning: Key Epdps is not set. Using '0' as the default. Please configure this value if this is wrong.
Config: Warning: Key Voltage is not set. Using '1.5' as the default. Please configure this value if this is wrong.
Config: Warning: Key Rtt_nom is not set. Using '30' as the default. Please configure this value if this is wrong.
Config: Warning: Key Rtt_wr is not set. Using '60' as the default. Please configure this value if this is wrong.
Config: Warning: Key Rtt_cont is not set. Using '75' as the default. Please configure this value if this is wrong.
Config: Warning: Key VDDQ is not set. Using '1.5' as the default. Please configure this value if this is wrong.
Config: Warning: Key VSSQ is not set. Using '0' as the default. Please configure this value if this is wrong.
Config: Warning: Key RanksPerDIMM is not set. Using '1' as the default. Please configure this value if this is wrong.
Config: Warning: Key EnduranceModel is not set. Using 'NullModel' as the default. Please configure this value if this is wrong.
Config: Warning: Key DataEncoder is not set. Using 'default' as the default. Please configure this value if this is wrong.
Config: Warning: Key EnergyModel is not set. Using 'current' as the default. Please configure this value if this is wrong.
Config: Warning: Key UseLowPower is not set. Using 'true' as the default. Please configure this value if this is wrong.
Config: Warning: Key PowerDownMode is not set. Using 'FASTEXIT' as the default. Please configure this value if this is wrong.
Config: Warning: Key InitPD is not set. Using 'false' as the default. Please configure this value if this is wrong.
Config: Warning: Key PrintGraphs is not set. Using 'false' as the default. Please configure this value if this is wrong.
Config: Warning: Key PrintAllDevices is not set. Using 'false' as the default. Please configure this value if this is wrong.
Config: Warning: Key PrintConfig is not set. Using 'false' as the default. Please configure this value if this is wrong.
Config: Warning: Key RefreshRows is not set. Using '4' as the default. Please configure this value if this is wrong.
Config: Warning: Key UseRefresh is not set. Using 'true' as the default. Please configure this value if this is wrong.
Config: Warning: Key StaggerRefresh is not set. Using 'false' as the default. Please configure this value if this is wrong.
Config: Warning: Key UsePrecharge is not set. Using 'true' as the default. Please configure this value if this is wrong.
Config: Warning: Key OffChipLatency is not set. Using '10' as the default. Please configure this value if this is wrong.
Config: Warning: Key PeriodicStatsInterval is not set. Using '0' as the default. Please configure this value if this is wrong.
Config: Warning: Key RAW is not set. Using '4' as the default. Please configure this value if this is wrong.
Config: Warning: Key MATHeight is not set. Using '65536' as the default. Please configure this value if this is wrong.
Config: Warning: Key RBSize is not set. Using '32' as the default. Please configure this value if this is wrong.
Config: Warning: Key tRDPDEN is not set. Using '24' as the default. Please configure this value if this is wrong.
Config: Warning: Key tWRPDEN is not set. Using '19' as the default. Please configure this value if this is wrong.
Config: Warning: Key tWRAPDEN is not set. Using '22' as the default. Please configure this value if this is wrong.
Config: Warning: Key ClosePage is not set. Using '1' as the default. Please configure this value if this is wrong.
Config: Warning: Key ScheduleScheme is not set. Using '1' as the default. Please configure this value if this is wrong.
Config: Warning: Key HighWaterMark is not set. Using '32' as the default. Please configure this value if this is wrong.
Config: Warning: Key LowWaterMark is not set. Using '16' as the default. Please configure this value if this is wrong.
Config: Warning: Key BanksPerRefresh is not set. Using '8' as the default. Please configure this value if this is wrong.
Config: Warning: Key DelayedRefreshThreshold is not set. Using '1' as the default. Please configure this value if this is wrong.
Config: Warning: Key MemoryPrefetcher is not set. Using 'none' as the default. Please configure this value if this is wrong.
Config: Warning: Key PrefetchBufferSize is not set. Using '32' as the default. Please configure this value if this is wrong.
Config: Warning: Key MLCLevels is not set. Using '1' as the default. Please configure this value if this is wrong.
Config: Warning: Key WPVariance is not set. Using '1' as the default. Please configure this value if this is wrong.
Config: Warning: Key UniformWrites is not set. Using 'true' as the default. Please configure this value if this is wrong.
Config: Warning: Key WriteAllBits is not set. Using 'true' as the default. Please configure this value if this is wrong.
Config: Warning: Key Ereset is not set. Using '0.054331' as the default. Please configure this value if this is wrong.
Config: Warning: Key Eset is not set. Using '0.101581' as the default. Please configure this value if this is wrong.
Config: Warning: Key nWP00 is not set. Using '0' as the default. Please configure this value if this is wrong.
Config: Warning: Key nWP01 is not set. Using '7' as the default. Please configure this value if this is wrong.
Config: Warning: Key nWP10 is not set. Using '5' as the default. Please configure this value if this is wrong.
Config: Warning: Key nWP11 is not set. Using '1' as the default. Please configure this value if this is wrong.
Config: Warning: Key WPMaxVariance is not set. Using '2' as the default. Please configure this value if this is wrong.
Config: Warning: Key DeadlockTimer is not set. Using '10000000' as the default. Please configure this value if this is wrong.
Config: Warning: Key EnableDebug is not set. Using 'false' as the default. Please configure this value if this is wrong.
Config: Warning: Key WritePausing is not set. Using 'false' as the default. Please configure this value if this is wrong.
Config: Warning: Key PauseThreshold is not set. Using '0.4' as the default. Please configure this value if this is wrong.
Config: Warning: Key MaxCancellations is not set. Using '4' as the default. Please configure this value if this is wrong.
NVMain: the address mapping order is 
	Sub-Array 6
	Row 5
	Column 1
	Bank 3
	Rank 4
	Channel 2
Reading channel config file: nvmain/Config/Hybrid_DRAM_channel.config
Created a First Ready First Come First Serve memory controller!
Config: Warning: Key Rtt_nom is not set. Using '30' as the default. Please configure this value if this is wrong.
Config: Warning: Key Rtt_wr is not set. Using '60' as the default. Please configure this value if this is wrong.
Config: Warning: Key Rtt_cont is not set. Using '75' as the default. Please configure this value if this is wrong.
Config: Warning: Key VDDQ is not set. Using '1.5' as the default. Please configure this value if this is wrong.
Config: Warning: Key VSSQ is not set. Using '0' as the default. Please configure this value if this is wrong.
Config: Warning: Key RanksPerDIMM is not set. Using '1' as the default. Please configure this value if this is wrong.
Config: Warning: Key DataEncoder is not set. Using 'default' as the default. Please configure this value if this is wrong.
Config: Warning: Key PrintAllDevices is not set. Using 'false' as the default. Please configure this value if this is wrong.
Config: Warning: Key PrintConfig is not set. Using 'false' as the default. Please configure this value if this is wrong.
Config: Warning: Key StaggerRefresh is not set. Using 'false' as the default. Please configure this value if this is wrong.
Config: Warning: Key UsePrecharge is not set. Using 'true' as the default. Please configure this value if this is wrong.
Config: Warning: Key OffChipLatency is not set. Using '10' as the default. Please configure this value if this is wrong.
Config: Warning: Key RBSize is not set. Using '32' as the default. Please configure this value if this is wrong.
Config: Warning: Key MemoryPrefetcher is not set. Using 'none' as the default. Please configure this value if this is wrong.
Config: Warning: Key PrefetchBufferSize is not set. Using '32' as the default. Please configure this value if this is wrong.
Config: Warning: Key MLCLevels is not set. Using '1' as the default. Please configure this value if this is wrong.
Config: Warning: Key WPVariance is not set. Using '1' as the default. Please configure this value if this is wrong.
Config: Warning: Key UniformWrites is not set. Using 'true' as the default. Please configure this value if this is wrong.
Config: Warning: Key WriteAllBits is not set. Using 'true' as the default. Please configure this value if this is wrong.
Config: Warning: Key Ereset is not set. Using '0.054331' as the default. Please configure this value if this is wrong.
Config: Warning: Key Eset is not set. Using '0.101581' as the default. Please configure this value if this is wrong.
Config: Warning: Key nWP00 is not set. Using '0' as the default. Please configure this value if this is wrong.
Config: Warning: Key nWP01 is not set. Using '7' as the default. Please configure this value if this is wrong.
Config: Warning: Key nWP10 is not set. Using '5' as the default. Please configure this value if this is wrong.
Config: Warning: Key nWP11 is not set. Using '1' as the default. Please configure this value if this is wrong.
Config: Warning: Key WPMaxVariance is not set. Using '2' as the default. Please configure this value if this is wrong.
Config: Warning: Key DeadlockTimer is not set. Using '10000000' as the default. Please configure this value if this is wrong.
Config: Warning: Key EnableDebug is not set. Using 'false' as the default. Please configure this value if this is wrong.
Config: Warning: Key WritePausing is not set. Using 'false' as the default. Please configure this value if this is wrong.
Config: Warning: Key PauseThreshold is not set. Using '0.4' as the default. Please configure this value if this is wrong.
Config: Warning: Key MaxCancellations is not set. Using '4' as the default. Please configure this value if this is wrong.
Config: Warning: Key RankType is not set. Using '' as the default. Please configure this value if this is wrong.
Creating 8 banks in all 8 devices.
Config: Warning: Key BankType is not set. Using '' as the default. Please configure this value if this is wrong.
NVMain: the address mapping order is 
	Sub-Array 6
	Row 5
	Column 1
	Bank 3
	Rank 4
	Channel 2
defaultMemory.channel0.FRFCFS capacity is 1024 MB.
Creating 8 command queues.
Reading channel config file: nvmain/Config/Hybrid_NVM_channel.config
Created a First Ready First Come First Serve memory         controller with write queue!
Config: Warning: Key EIDD0 is not set. Using '85' as the default. Please configure this value if this is wrong.
Config: Warning: Key EIDD1 is not set. Using '54' as the default. Please configure this value if this is wrong.
Config: Warning: Key EIDD2P0 is not set. Using '30' as the default. Please configure this value if this is wrong.
Config: Warning: Key EIDD2P1 is not set. Using '30' as the default. Please configure this value if this is wrong.
Config: Warning: Key EIDD2N is not set. Using '37' as the default. Please configure this value if this is wrong.
Config: Warning: Key EIDD3P is not set. Using '35' as the default. Please configure this value if this is wrong.
Config: Warning: Key EIDD3N is not set. Using '40' as the default. Please configure this value if this is wrong.
Config: Warning: Key EIDD4R is not set. Using '160' as the default. Please configure this value if this is wrong.
Config: Warning: Key EIDD4W is not set. Using '165' as the default. Please configure this value if this is wrong.
Config: Warning: Key EIDD5B is not set. Using '200' as the default. Please configure this value if this is wrong.
Config: Warning: Key EIDD6 is not set. Using '12' as the default. Please configure this value if this is wrong.
Config: Warning: Key Eactstdby is not set. Using '0.09009' as the default. Please configure this value if this is wrong.
Config: Warning: Key Eprestdby is not set. Using '0.083333' as the default. Please configure this value if this is wrong.
Config: Warning: Key Rtt_nom is not set. Using '30' as the default. Please configure this value if this is wrong.
Config: Warning: Key Rtt_wr is not set. Using '60' as the default. Please configure this value if this is wrong.
Config: Warning: Key Rtt_cont is not set. Using '75' as the default. Please configure this value if this is wrong.
Config: Warning: Key VDDQ is not set. Using '1.5' as the default. Please configure this value if this is wrong.
Config: Warning: Key VSSQ is not set. Using '0' as the default. Please configure this value if this is wrong.
Config: Warning: Key RanksPerDIMM is not set. Using '1' as the default. Please configure this value if this is wrong.
Config: Warning: Key DataEncoder is not set. Using 'default' as the default. Please configure this value if this is wrong.
Config: Warning: Key UseLowPower is not set. Using 'true' as the default. Please configure this value if this is wrong.
Config: Warning: Key PowerDownMode is not set. Using 'FASTEXIT' as the default. Please configure this value if this is wrong.
Config: Warning: Key PrintAllDevices is not set. Using 'false' as the default. Please configure this value if this is wrong.
Config: Warning: Key PrintConfig is not set. Using 'false' as the default. Please configure this value if this is wrong.
Config: Warning: Key StaggerRefresh is not set. Using 'false' as the default. Please configure this value if this is wrong.
Config: Warning: Key UsePrecharge is not set. Using 'true' as the default. Please configure this value if this is wrong.
Config: Warning: Key OffChipLatency is not set. Using '10' as the default. Please configure this value if this is wrong.
Config: Warning: Key RBSize is not set. Using '32' as the default. Please configure this value if this is wrong.
Config: Warning: Key MemoryPrefetcher is not set. Using 'none' as the default. Please configure this value if this is wrong.
Config: Warning: Key PrefetchBufferSize is not set. Using '32' as the default. Please configure this value if this is wrong.
Config: Warning: Key MLCLevels is not set. Using '1' as the default. Please configure this value if this is wrong.
Config: Warning: Key WPVariance is not set. Using '1' as the default. Please configure this value if this is wrong.
Config: Warning: Key UniformWrites is not set. Using 'true' as the default. Please configure this value if this is wrong.
Config: Warning: Key WriteAllBits is not set. Using 'true' as the default. Please configure this value if this is wrong.
Config: Warning: Key Ereset is not set. Using '0.054331' as the default. Please configure this value if this is wrong.
Config: Warning: Key Eset is not set. Using '0.101581' as the default. Please configure this value if this is wrong.
Config: Warning: Key nWP00 is not set. Using '0' as the default. Please configure this value if this is wrong.
Config: Warning: Key nWP01 is not set. Using '7' as the default. Please configure this value if this is wrong.
Config: Warning: Key nWP10 is not set. Using '5' as the default. Please configure this value if this is wrong.
Config: Warning: Key nWP11 is not set. Using '1' as the default. Please configure this value if this is wrong.
Config: Warning: Key WPMaxVariance is not set. Using '2' as the default. Please configure this value if this is wrong.
Config: Warning: Key DeadlockTimer is not set. Using '10000000' as the default. Please configure this value if this is wrong.
Config: Warning: Key EnableDebug is not set. Using 'false' as the default. Please configure this value if this is wrong.
Config: Warning: Key WritePausing is not set. Using 'false' as the default. Please configure this value if this is wrong.
Config: Warning: Key PauseThreshold is not set. Using '0.4' as the default. Please configure this value if this is wrong.
Config: Warning: Key MaxCancellations is not set. Using '4' as the default. Please configure this value if this is wrong.
Config: Warning: Key RankType is not set. Using '' as the default. Please configure this value if this is wrong.
Creating 8 banks in all 8 devices.
Config: Warning: Key BankType is not set. Using '' as the default. Please configure this value if this is wrong.
NVMain: the address mapping order is 
	Sub-Array 6
	Row 5
	Column 1
	Bank 3
	Rank 4
	Channel 2
defaultMemory.channel1.FRFCFS-WQF capacity is 1024 MB.
Creating 8 command queues.
Reading channel config file: nvmain/Config/Hybrid_NVM_channel.config
Created a First Ready First Come First Serve memory         controller with write queue!
Config: Warning: Key EIDD0 is not set. Using '85' as the default. Please configure this value if this is wrong.
Config: Warning: Key EIDD1 is not set. Using '54' as the default. Please configure this value if this is wrong.
Config: Warning: Key EIDD2P0 is not set. Using '30' as the default. Please configure this value if this is wrong.
Config: Warning: Key EIDD2P1 is not set. Using '30' as the default. Please configure this value if this is wrong.
Config: Warning: Key EIDD2N is not set. Using '37' as the default. Please configure this value if this is wrong.
Config: Warning: Key EIDD3P is not set. Using '35' as the default. Please configure this value if this is wrong.
Config: Warning: Key EIDD3N is not set. Using '40' as the default. Please configure this value if this is wrong.
Config: Warning: Key EIDD4R is not set. Using '160' as the default. Please configure this value if this is wrong.
Config: Warning: Key EIDD4W is not set. Using '165' as the default. Please configure this value if this is wrong.
Config: Warning: Key EIDD5B is not set. Using '200' as the default. Please configure this value if this is wrong.
Config: Warning: Key EIDD6 is not set. Using '12' as the default. Please configure this value if this is wrong.
Config: Warning: Key Eactstdby is not set. Using '0.09009' as the default. Please configure this value if this is wrong.
Config: Warning: Key Eprestdby is not set. Using '0.083333' as the default. Please configure this value if this is wrong.
Config: Warning: Key Rtt_nom is not set. Using '30' as the default. Please configure this value if this is wrong.
Config: Warning: Key Rtt_wr is not set. Using '60' as the default. Please configure this value if this is wrong.
Config: Warning: Key Rtt_cont is not set. Using '75' as the default. Please configure this value if this is wrong.
Config: Warning: Key VDDQ is not set. Using '1.5' as the default. Please configure this value if this is wrong.
Config: Warning: Key VSSQ is not set. Using '0' as the default. Please configure this value if this is wrong.
Config: Warning: Key RanksPerDIMM is not set. Using '1' as the default. Please configure this value if this is wrong.
Config: Warning: Key DataEncoder is not set. Using 'default' as the default. Please configure this value if this is wrong.
Config: Warning: Key UseLowPower is not set. Using 'true' as the default. Please configure this value if this is wrong.
Config: Warning: Key PowerDownMode is not set. Using 'FASTEXIT' as the default. Please configure this value if this is wrong.
Config: Warning: Key PrintAllDevices is not set. Using 'false' as the default. Please configure this value if this is wrong.
Config: Warning: Key PrintConfig is not set. Using 'false' as the default. Please configure this value if this is wrong.
Config: Warning: Key StaggerRefresh is not set. Using 'false' as the default. Please configure this value if this is wrong.
Config: Warning: Key UsePrecharge is not set. Using 'true' as the default. Please configure this value if this is wrong.
Config: Warning: Key OffChipLatency is not set. Using '10' as the default. Please configure this value if this is wrong.
Config: Warning: Key RBSize is not set. Using '32' as the default. Please configure this value if this is wrong.
Config: Warning: Key MemoryPrefetcher is not set. Using 'none' as the default. Please configure this value if this is wrong.
Config: Warning: Key PrefetchBufferSize is not set. Using '32' as the default. Please configure this value if this is wrong.
Config: Warning: Key MLCLevels is not set. Using '1' as the default. Please configure this value if this is wrong.
Config: Warning: Key WPVariance is not set. Using '1' as the default. Please configure this value if this is wrong.
Config: Warning: Key UniformWrites is not set. Using 'true' as the default. Please configure this value if this is wrong.
Config: Warning: Key WriteAllBits is not set. Using 'true' as the default. Please configure this value if this is wrong.
Config: Warning: Key Ereset is not set. Using '0.054331' as the default. Please configure this value if this is wrong.
Config: Warning: Key Eset is not set. Using '0.101581' as the default. Please configure this value if this is wrong.
Config: Warning: Key nWP00 is not set. Using '0' as the default. Please configure this value if this is wrong.
Config: Warning: Key nWP01 is not set. Using '7' as the default. Please configure this value if this is wrong.
Config: Warning: Key nWP10 is not set. Using '5' as the default. Please configure this value if this is wrong.
Config: Warning: Key nWP11 is not set. Using '1' as the default. Please configure this value if this is wrong.
Config: Warning: Key WPMaxVariance is not set. Using '2' as the default. Please configure this value if this is wrong.
Config: Warning: Key DeadlockTimer is not set. Using '10000000' as the default. Please configure this value if this is wrong.
Config: Warning: Key EnableDebug is not set. Using 'false' as the default. Please configure this value if this is wrong.
Config: Warning: Key WritePausing is not set. Using 'false' as the default. Please configure this value if this is wrong.
Config: Warning: Key PauseThreshold is not set. Using '0.4' as the default. Please configure this value if this is wrong.
Config: Warning: Key MaxCancellations is not set. Using '4' as the default. Please configure this value if this is wrong.
Config: Warning: Key RankType is not set. Using '' as the default. Please configure this value if this is wrong.
Creating 8 banks in all 8 devices.
Config: Warning: Key BankType is not set. Using '' as the default. Please configure this value if this is wrong.
NVMain: the address mapping order is 
	Sub-Array 6
	Row 5
	Column 1
	Bank 3
	Rank 4
	Channel 2
defaultMemory.channel2.FRFCFS-WQF capacity is 1024 MB.
Creating 8 command queues.
Reading channel config file: nvmain/Config/Hybrid_NVM_channel.config
Created a First Ready First Come First Serve memory         controller with write queue!
Config: Warning: Key EIDD0 is not set. Using '85' as the default. Please configure this value if this is wrong.
Config: Warning: Key EIDD1 is not set. Using '54' as the default. Please configure this value if this is wrong.
Config: Warning: Key EIDD2P0 is not set. Using '30' as the default. Please configure this value if this is wrong.
Config: Warning: Key EIDD2P1 is not set. Using '30' as the default. Please configure this value if this is wrong.
Config: Warning: Key EIDD2N is not set. Using '37' as the default. Please configure this value if this is wrong.
Config: Warning: Key EIDD3P is not set. Using '35' as the default. Please configure this value if this is wrong.
Config: Warning: Key EIDD3N is not set. Using '40' as the default. Please configure this value if this is wrong.
Config: Warning: Key EIDD4R is not set. Using '160' as the default. Please configure this value if this is wrong.
Config: Warning: Key EIDD4W is not set. Using '165' as the default. Please configure this value if this is wrong.
Config: Warning: Key EIDD5B is not set. Using '200' as the default. Please configure this value if this is wrong.
Config: Warning: Key EIDD6 is not set. Using '12' as the default. Please configure this value if this is wrong.
Config: Warning: Key Eactstdby is not set. Using '0.09009' as the default. Please configure this value if this is wrong.
Config: Warning: Key Eprestdby is not set. Using '0.083333' as the default. Please configure this value if this is wrong.
Config: Warning: Key Rtt_nom is not set. Using '30' as the default. Please configure this value if this is wrong.
Config: Warning: Key Rtt_wr is not set. Using '60' as the default. Please configure this value if this is wrong.
Config: Warning: Key Rtt_cont is not set. Using '75' as the default. Please configure this value if this is wrong.
Config: Warning: Key VDDQ is not set. Using '1.5' as the default. Please configure this value if this is wrong.
Config: Warning: Key VSSQ is not set. Using '0' as the default. Please configure this value if this is wrong.
Config: Warning: Key RanksPerDIMM is not set. Using '1' as the default. Please configure this value if this is wrong.
Config: Warning: Key DataEncoder is not set. Using 'default' as the default. Please configure this value if this is wrong.
Config: Warning: Key UseLowPower is not set. Using 'true' as the default. Please configure this value if this is wrong.
Config: Warning: Key PowerDownMode is not set. Using 'FASTEXIT' as the default. Please configure this value if this is wrong.
Config: Warning: Key PrintAllDevices is not set. Using 'false' as the default. Please configure this value if this is wrong.
Config: Warning: Key PrintConfig is not set. Using 'false' as the default. Please configure this value if this is wrong.
Config: Warning: Key StaggerRefresh is not set. Using 'false' as the default. Please configure this value if this is wrong.
Config: Warning: Key UsePrecharge is not set. Using 'true' as the default. Please configure this value if this is wrong.
Config: Warning: Key OffChipLatency is not set. Using '10' as the default. Please configure this value if this is wrong.
Config: Warning: Key RBSize is not set. Using '32' as the default. Please configure this value if this is wrong.
Config: Warning: Key MemoryPrefetcher is not set. Using 'none' as the default. Please configure this value if this is wrong.
Config: Warning: Key PrefetchBufferSize is not set. Using '32' as the default. Please configure this value if this is wrong.
Config: Warning: Key MLCLevels is not set. Using '1' as the default. Please configure this value if this is wrong.
Config: Warning: Key WPVariance is not set. Using '1' as the default. Please configure this value if this is wrong.
Config: Warning: Key UniformWrites is not set. Using 'true' as the default. Please configure this value if this is wrong.
Config: Warning: Key WriteAllBits is not set. Using 'true' as the default. Please configure this value if this is wrong.
Config: Warning: Key Ereset is not set. Using '0.054331' as the default. Please configure this value if this is wrong.
Config: Warning: Key Eset is not set. Using '0.101581' as the default. Please configure this value if this is wrong.
Config: Warning: Key nWP00 is not set. Using '0' as the default. Please configure this value if this is wrong.
Config: Warning: Key nWP01 is not set. Using '7' as the default. Please configure this value if this is wrong.
Config: Warning: Key nWP10 is not set. Using '5' as the default. Please configure this value if this is wrong.
Config: Warning: Key nWP11 is not set. Using '1' as the default. Please configure this value if this is wrong.
Config: Warning: Key WPMaxVariance is not set. Using '2' as the default. Please configure this value if this is wrong.
Config: Warning: Key DeadlockTimer is not set. Using '10000000' as the default. Please configure this value if this is wrong.
Config: Warning: Key EnableDebug is not set. Using 'false' as the default. Please configure this value if this is wrong.
Config: Warning: Key WritePausing is not set. Using 'false' as the default. Please configure this value if this is wrong.
Config: Warning: Key PauseThreshold is not set. Using '0.4' as the default. Please configure this value if this is wrong.
Config: Warning: Key MaxCancellations is not set. Using '4' as the default. Please configure this value if this is wrong.
Config: Warning: Key RankType is not set. Using '' as the default. Please configure this value if this is wrong.
Creating 8 banks in all 8 devices.
Config: Warning: Key BankType is not set. Using '' as the default. Please configure this value if this is wrong.
NVMain: the address mapping order is 
	Sub-Array 6
	Row 5
	Column 1
	Bank 3
	Rank 4
	Channel 2
defaultMemory.channel3.FRFCFS-WQF capacity is 1024 MB.
Creating 8 command queues.
warn: ClockedObject: More than one power state change request encountered within the same simulation tick
**** REAL SIMULATION ****
info: Entering event queue @ 0.  Starting simulation...
warn: x86 cpuid family 0x0000: unimplemented function 7
warn: readlink() called on '/proc/self/exe' may yield unexpected results in various settings.
      Returning '/home/server2/stx-gem/spec06/spec06-x86/benchspec/CPU2006/470.lbm/exe/lbm_base.amd64-m64-gcc42-nn'
info: Increasing stack size by one page.
warn: ignoring syscall access(4931905, ...)
Exiting @ tick 1126689954000 because a thread reached the max instruction count
i0.CoinMigrator.migrationCount 145211
i0.CoinMigrator.queueWaits 0
i0.CoinMigrator.bufferedReads 25
i0.defaultMemory.decoder.migratedAccesses 10951744
i0.defaultMemory.channel0.FRFCFS.decoder.migratedAccesses 0
i0.defaultMemory.channel0.FRFCFS.channel0.decoder.migratedAccesses 0
i0.defaultMemory.channel0.FRFCFS.channel0.rank0.decoder.migratedAccesses 0
i0.defaultMemory.channel0.FRFCFS.channel0.rank0.bank0.decoder.migratedAccesses 0
i0.defaultMemory.channel0.FRFCFS.channel0.rank0.bank0.subarray0.subArrayEnergy 3.27484e+08mA*t
i0.defaultMemory.channel0.FRFCFS.channel0.rank0.bank0.subarray0.activeEnergy 4.88886e+06mA*t
i0.defaultMemory.channel0.FRFCFS.channel0.rank0.bank0.subarray0.burstEnergy 1.41268e+07mA*t
i0.defaultMemory.channel0.FRFCFS.channel0.rank0.bank0.subarray0.refreshEnergy 3.08468e+08mA*t
i0.defaultMemory.channel0.FRFCFS.channel0.rank0.bank0.subarray0.cancelledWrites 0
i0.defaultMemory.channel0.FRFCFS.channel0.rank0.bank0.subarray0.cancelledWriteTime 0
i0.defaultMemory.channel0.FRFCFS.channel0.rank0.bank0.subarray0.pausedWrites 0
i0.defaultMemory.channel0.FRFCFS.channel0.rank0.bank0.subarray0.averagePausesPerRequest 0
i0.defaultMemory.channel0.FRFCFS.channel0.rank0.bank0.subarray0.measuredPauses 175850
i0.defaultMemory.channel0.FRFCFS.channel0.rank0.bank0.subarray0.averagePausedRequestProgress 0
i0.defaultMemory.channel0.FRFCFS.channel0.rank0.bank0.subarray0.measuredProgresses 0
i0.defaultMemory.channel0.FRFCFS.channel0.rank0.bank0.subarray0.reads 52269
i0.defaultMemory.channel0.FRFCFS.channel0.rank0.bank0.subarray0.writes 175850
i0.defaultMemory.channel0.FRFCFS.channel0.rank0.bank0.subarray0.activates 44955
i0.defaultMemory.channel0.FRFCFS.channel0.rank0.bank0.subarray0.precharges 44955
i0.defaultMemory.channel0.FRFCFS.channel0.rank0.bank0.subarray0.refreshes 144144
i0.defaultMemory.channel0.FRFCFS.channel0.rank0.bank0.subarray0.worstCaseEndurance 18446744073709551615
i0.defaultMemory.channel0.FRFCFS.channel0.rank0.bank0.subarray0.averageEndurance 0
i0.defaultMemory.channel0.FRFCFS.channel0.rank0.bank0.subarray0.actWaits 29267
i0.defaultMemory.channel0.FRFCFS.channel0.rank0.bank0.subarray0.actWaitTotal 269934
i0.defaultMemory.channel0.FRFCFS.channel0.rank0.bank0.subarray0.actWaitAverage 9.22315
i0.defaultMemory.channel0.FRFCFS.channel0.rank0.bank0.subarray0.worstCaseWrite 0
i0.defaultMemory.channel0.FRFCFS.channel0.rank0.bank0.subarray0.num00Writes 0
i0.defaultMemory.channel0.FRFCFS.channel0.rank0.bank0.subarray0.num01Writes 0
i0.defaultMemory.channel0.FRFCFS.channel0.rank0.bank0.subarray0.num10Writes 0
i0.defaultMemory.channel0.FRFCFS.channel0.rank0.bank0.subarray0.num11Writes 0
i0.defaultMemory.channel0.FRFCFS.channel0.rank0.bank0.subarray0.averageWriteTime 0
i0.defaultMemory.channel0.FRFCFS.channel0.rank0.bank0.subarray0.measuredWriteTimes 175850
i0.defaultMemory.channel0.FRFCFS.channel0.rank0.bank0.subarray0.mlcTimingHisto {}
i0.defaultMemory.channel0.FRFCFS.channel0.rank0.bank0.subarray0.cancelCountHisto {0: 175849}
i0.defaultMemory.channel0.FRFCFS.channel0.rank0.bank0.subarray0.wpPauseHisto {}
i0.defaultMemory.channel0.FRFCFS.channel0.rank0.bank0.subarray0.wpCancelHisto {}
i0.defaultMemory.channel0.FRFCFS.channel0.rank0.bank0.bankEnergy 3.27484e+08mA*t
i0.defaultMemory.channel0.FRFCFS.channel0.rank0.bank0.activeEnergy 4.88886e+06mA*t
i0.defaultMemory.channel0.FRFCFS.channel0.rank0.bank0.burstEnergy 1.41268e+07mA*t
i0.defaultMemory.channel0.FRFCFS.channel0.rank0.bank0.refreshEnergy 3.08468e+08mA*t
i0.defaultMemory.channel0.FRFCFS.channel0.rank0.bank0.bankPower 0.00130871W
i0.defaultMemory.channel0.FRFCFS.channel0.rank0.bank0.activePower 1.95371e-05W
i0.defaultMemory.channel0.FRFCFS.channel0.rank0.bank0.burstPower 5.64541e-05W
i0.defaultMemory.channel0.FRFCFS.channel0.rank0.bank0.refreshPower 0.00123272W
i0.defaultMemory.channel0.FRFCFS.channel0.rank0.bank0.bandwidth 207.237MB/s
i0.defaultMemory.channel0.FRFCFS.channel0.rank0.bank0.dataCycles 912476
i0.defaultMemory.channel0.FRFCFS.channel0.rank0.bank0.powerCycles 375351965
i0.defaultMemory.channel0.FRFCFS.channel0.rank0.bank0.utilization 0.00243099
i0.defaultMemory.channel0.FRFCFS.channel0.rank0.bank0.reads 52269
i0.defaultMemory.channel0.FRFCFS.channel0.rank0.bank0.writes 175850
i0.defaultMemory.channel0.FRFCFS.channel0.rank0.bank0.activates 44955
i0.defaultMemory.channel0.FRFCFS.channel0.rank0.bank0.precharges 44955
i0.defaultMemory.channel0.FRFCFS.channel0.rank0.bank0.refreshes 144144
i0.defaultMemory.channel0.FRFCFS.channel0.rank0.bank0.activeCycles 38105871
i0.defaultMemory.channel0.FRFCFS.channel0.rank0.bank0.standbyCycles 337246094
i0.defaultMemory.channel0.FRFCFS.channel0.rank0.bank0.fastExitActiveCycles 0
i0.defaultMemory.channel0.FRFCFS.channel0.rank0.bank0.fastExitPrechargeCycles 0
i0.defaultMemory.channel0.FRFCFS.channel0.rank0.bank0.slowExitPrechargeCycles 0
i0.defaultMemory.channel0.FRFCFS.channel0.rank0.bank0.actWaits 0
i0.defaultMemory.channel0.FRFCFS.channel0.rank0.bank0.actWaitTotal 0
i0.defaultMemory.channel0.FRFCFS.channel0.rank0.bank0.actWaitAverage -nan
i0.defaultMemory.channel0.FRFCFS.channel0.rank0.bank0.averageEndurance 0
i0.defaultMemory.channel0.FRFCFS.channel0.rank0.bank0.worstCaseEndurance 18446744073709551615
i0.defaultMemory.channel0.FRFCFS.channel0.rank0.bank1.decoder.migratedAccesses 0
i0.defaultMemory.channel0.FRFCFS.channel0.rank0.bank1.subarray0.subArrayEnergy 3.27632e+08mA*t
i0.defaultMemory.channel0.FRFCFS.channel0.rank0.bank1.subarray0.activeEnergy 4.98673e+06mA*t
i0.defaultMemory.channel0.FRFCFS.channel0.rank0.bank1.subarray0.burstEnergy 1.41768e+07mA*t
i0.defaultMemory.channel0.FRFCFS.channel0.rank0.bank1.subarray0.refreshEnergy 3.08468e+08mA*t
i0.defaultMemory.channel0.FRFCFS.channel0.rank0.bank1.subarray0.cancelledWrites 0
i0.defaultMemory.channel0.FRFCFS.channel0.rank0.bank1.subarray0.cancelledWriteTime 0
i0.defaultMemory.channel0.FRFCFS.channel0.rank0.bank1.subarray0.pausedWrites 0
i0.defaultMemory.channel0.FRFCFS.channel0.rank0.bank1.subarray0.averagePausesPerRequest 0
i0.defaultMemory.channel0.FRFCFS.channel0.rank0.bank1.subarray0.measuredPauses 177048
i0.defaultMemory.channel0.FRFCFS.channel0.rank0.bank1.subarray0.averagePausedRequestProgress 0
i0.defaultMemory.channel0.FRFCFS.channel0.rank0.bank1.subarray0.measuredProgresses 0
i0.defaultMemory.channel0.FRFCFS.channel0.rank0.bank1.subarray0.reads 51855
i0.defaultMemory.channel0.FRFCFS.channel0.rank0.bank1.subarray0.writes 177048
i0.defaultMemory.channel0.FRFCFS.channel0.rank0.bank1.subarray0.activates 45855
i0.defaultMemory.channel0.FRFCFS.channel0.rank0.bank1.subarray0.precharges 45855
i0.defaultMemory.channel0.FRFCFS.channel0.rank0.bank1.subarray0.refreshes 144144
i0.defaultMemory.channel0.FRFCFS.channel0.rank0.bank1.subarray0.worstCaseEndurance 18446744073709551615
i0.defaultMemory.channel0.FRFCFS.channel0.rank0.bank1.subarray0.averageEndurance 0
i0.defaultMemory.channel0.FRFCFS.channel0.rank0.bank1.subarray0.actWaits 31317
i0.defaultMemory.channel0.FRFCFS.channel0.rank0.bank1.subarray0.actWaitTotal 348870
i0.defaultMemory.channel0.FRFCFS.channel0.rank0.bank1.subarray0.actWaitAverage 11.14
i0.defaultMemory.channel0.FRFCFS.channel0.rank0.bank1.subarray0.worstCaseWrite 0
i0.defaultMemory.channel0.FRFCFS.channel0.rank0.bank1.subarray0.num00Writes 0
i0.defaultMemory.channel0.FRFCFS.channel0.rank0.bank1.subarray0.num01Writes 0
i0.defaultMemory.channel0.FRFCFS.channel0.rank0.bank1.subarray0.num10Writes 0
i0.defaultMemory.channel0.FRFCFS.channel0.rank0.bank1.subarray0.num11Writes 0
i0.defaultMemory.channel0.FRFCFS.channel0.rank0.bank1.subarray0.averageWriteTime 0
i0.defaultMemory.channel0.FRFCFS.channel0.rank0.bank1.subarray0.measuredWriteTimes 177048
i0.defaultMemory.channel0.FRFCFS.channel0.rank0.bank1.subarray0.mlcTimingHisto {}
i0.defaultMemory.channel0.FRFCFS.channel0.rank0.bank1.subarray0.cancelCountHisto {0: 177047}
i0.defaultMemory.channel0.FRFCFS.channel0.rank0.bank1.subarray0.wpPauseHisto {}
i0.defaultMemory.channel0.FRFCFS.channel0.rank0.bank1.subarray0.wpCancelHisto {}
i0.defaultMemory.channel0.FRFCFS.channel0.rank0.bank1.bankEnergy 3.27632e+08mA*t
i0.defaultMemory.channel0.FRFCFS.channel0.rank0.bank1.activeEnergy 4.98673e+06mA*t
i0.defaultMemory.channel0.FRFCFS.channel0.rank0.bank1.burstEnergy 1.41768e+07mA*t
i0.defaultMemory.channel0.FRFCFS.channel0.rank0.bank1.refreshEnergy 3.08468e+08mA*t
i0.defaultMemory.channel0.FRFCFS.channel0.rank0.bank1.bankPower 0.0013093W
i0.defaultMemory.channel0.FRFCFS.channel0.rank0.bank1.activePower 1.99282e-05W
i0.defaultMemory.channel0.FRFCFS.channel0.rank0.bank1.burstPower 5.6654e-05W
i0.defaultMemory.channel0.FRFCFS.channel0.rank0.bank1.refreshPower 0.00123272W
i0.defaultMemory.channel0.FRFCFS.channel0.rank0.bank1.bandwidth 207.949MB/s
i0.defaultMemory.channel0.FRFCFS.channel0.rank0.bank1.dataCycles 915612
i0.defaultMemory.channel0.FRFCFS.channel0.rank0.bank1.powerCycles 375351965
i0.defaultMemory.channel0.FRFCFS.channel0.rank0.bank1.utilization 0.00243934
i0.defaultMemory.channel0.FRFCFS.channel0.rank0.bank1.reads 51855
i0.defaultMemory.channel0.FRFCFS.channel0.rank0.bank1.writes 177048
i0.defaultMemory.channel0.FRFCFS.channel0.rank0.bank1.activates 45855
i0.defaultMemory.channel0.FRFCFS.channel0.rank0.bank1.precharges 45855
i0.defaultMemory.channel0.FRFCFS.channel0.rank0.bank1.refreshes 144144
i0.defaultMemory.channel0.FRFCFS.channel0.rank0.bank1.activeCycles 37790506
i0.defaultMemory.channel0.FRFCFS.channel0.rank0.bank1.standbyCycles 337561459
i0.defaultMemory.channel0.FRFCFS.channel0.rank0.bank1.fastExitActiveCycles 0
i0.defaultMemory.channel0.FRFCFS.channel0.rank0.bank1.fastExitPrechargeCycles 0
i0.defaultMemory.channel0.FRFCFS.channel0.rank0.bank1.slowExitPrechargeCycles 0
i0.defaultMemory.channel0.FRFCFS.channel0.rank0.bank1.actWaits 0
i0.defaultMemory.channel0.FRFCFS.channel0.rank0.bank1.actWaitTotal 0
i0.defaultMemory.channel0.FRFCFS.channel0.rank0.bank1.actWaitAverage -nan
i0.defaultMemory.channel0.FRFCFS.channel0.rank0.bank1.averageEndurance 0
i0.defaultMemory.channel0.FRFCFS.channel0.rank0.bank1.worstCaseEndurance 18446744073709551615
i0.defaultMemory.channel0.FRFCFS.channel0.rank0.bank2.decoder.migratedAccesses 0
i0.defaultMemory.channel0.FRFCFS.channel0.rank0.bank2.subarray0.subArrayEnergy 3.27363e+08mA*t
i0.defaultMemory.channel0.FRFCFS.channel0.rank0.bank2.subarray0.activeEnergy 4.78011e+06mA*t
i0.defaultMemory.channel0.FRFCFS.channel0.rank0.bank2.subarray0.burstEnergy 1.41152e+07mA*t
i0.defaultMemory.channel0.FRFCFS.channel0.rank0.bank2.subarray0.refreshEnergy 3.08468e+08mA*t
i0.defaultMemory.channel0.FRFCFS.channel0.rank0.bank2.subarray0.cancelledWrites 0
i0.defaultMemory.channel0.FRFCFS.channel0.rank0.bank2.subarray0.cancelledWriteTime 0
i0.defaultMemory.channel0.FRFCFS.channel0.rank0.bank2.subarray0.pausedWrites 0
i0.defaultMemory.channel0.FRFCFS.channel0.rank0.bank2.subarray0.averagePausesPerRequest 0
i0.defaultMemory.channel0.FRFCFS.channel0.rank0.bank2.subarray0.measuredPauses 176117
i0.defaultMemory.channel0.FRFCFS.channel0.rank0.bank2.subarray0.averagePausedRequestProgress 0
i0.defaultMemory.channel0.FRFCFS.channel0.rank0.bank2.subarray0.measuredProgresses 0
i0.defaultMemory.channel0.FRFCFS.channel0.rank0.bank2.subarray0.reads 51798
i0.defaultMemory.channel0.FRFCFS.channel0.rank0.bank2.subarray0.writes 176117
i0.defaultMemory.channel0.FRFCFS.channel0.rank0.bank2.subarray0.activates 43955
i0.defaultMemory.channel0.FRFCFS.channel0.rank0.bank2.subarray0.precharges 43955
i0.defaultMemory.channel0.FRFCFS.channel0.rank0.bank2.subarray0.refreshes 144144
i0.defaultMemory.channel0.FRFCFS.channel0.rank0.bank2.subarray0.worstCaseEndurance 18446744073709551615
i0.defaultMemory.channel0.FRFCFS.channel0.rank0.bank2.subarray0.averageEndurance 0
i0.defaultMemory.channel0.FRFCFS.channel0.rank0.bank2.subarray0.actWaits 29467
i0.defaultMemory.channel0.FRFCFS.channel0.rank0.bank2.subarray0.actWaitTotal 346125
i0.defaultMemory.channel0.FRFCFS.channel0.rank0.bank2.subarray0.actWaitAverage 11.7462
i0.defaultMemory.channel0.FRFCFS.channel0.rank0.bank2.subarray0.worstCaseWrite 0
i0.defaultMemory.channel0.FRFCFS.channel0.rank0.bank2.subarray0.num00Writes 0
i0.defaultMemory.channel0.FRFCFS.channel0.rank0.bank2.subarray0.num01Writes 0
i0.defaultMemory.channel0.FRFCFS.channel0.rank0.bank2.subarray0.num10Writes 0
i0.defaultMemory.channel0.FRFCFS.channel0.rank0.bank2.subarray0.num11Writes 0
i0.defaultMemory.channel0.FRFCFS.channel0.rank0.bank2.subarray0.averageWriteTime 0
i0.defaultMemory.channel0.FRFCFS.channel0.rank0.bank2.subarray0.measuredWriteTimes 176117
i0.defaultMemory.channel0.FRFCFS.channel0.rank0.bank2.subarray0.mlcTimingHisto {}
i0.defaultMemory.channel0.FRFCFS.channel0.rank0.bank2.subarray0.cancelCountHisto {0: 176116}
i0.defaultMemory.channel0.FRFCFS.channel0.rank0.bank2.subarray0.wpPauseHisto {}
i0.defaultMemory.channel0.FRFCFS.channel0.rank0.bank2.subarray0.wpCancelHisto {}
i0.defaultMemory.channel0.FRFCFS.channel0.rank0.bank2.bankEnergy 3.27363e+08mA*t
i0.defaultMemory.channel0.FRFCFS.channel0.rank0.bank2.activeEnergy 4.78011e+06mA*t
i0.defaultMemory.channel0.FRFCFS.channel0.rank0.bank2.burstEnergy 1.41152e+07mA*t
i0.defaultMemory.channel0.FRFCFS.channel0.rank0.bank2.refreshEnergy 3.08468e+08mA*t
i0.defaultMemory.channel0.FRFCFS.channel0.rank0.bank2.bankPower 0.00130823W
i0.defaultMemory.channel0.FRFCFS.channel0.rank0.bank2.activePower 1.91025e-05W
i0.defaultMemory.channel0.FRFCFS.channel0.rank0.bank2.burstPower 5.64078e-05W
i0.defaultMemory.channel0.FRFCFS.channel0.rank0.bank2.refreshPower 0.00123272W
i0.defaultMemory.channel0.FRFCFS.channel0.rank0.bank2.bandwidth 207.052MB/s
i0.defaultMemory.channel0.FRFCFS.channel0.rank0.bank2.dataCycles 911660
i0.defaultMemory.channel0.FRFCFS.channel0.rank0.bank2.powerCycles 375351965
i0.defaultMemory.channel0.FRFCFS.channel0.rank0.bank2.utilization 0.00242881
i0.defaultMemory.channel0.FRFCFS.channel0.rank0.bank2.reads 51798
i0.defaultMemory.channel0.FRFCFS.channel0.rank0.bank2.writes 176117
i0.defaultMemory.channel0.FRFCFS.channel0.rank0.bank2.activates 43955
i0.defaultMemory.channel0.FRFCFS.channel0.rank0.bank2.precharges 43955
i0.defaultMemory.channel0.FRFCFS.channel0.rank0.bank2.refreshes 144144
i0.defaultMemory.channel0.FRFCFS.channel0.rank0.bank2.activeCycles 37957871
i0.defaultMemory.channel0.FRFCFS.channel0.rank0.bank2.standbyCycles 337394094
i0.defaultMemory.channel0.FRFCFS.channel0.rank0.bank2.fastExitActiveCycles 0
i0.defaultMemory.channel0.FRFCFS.channel0.rank0.bank2.fastExitPrechargeCycles 0
i0.defaultMemory.channel0.FRFCFS.channel0.rank0.bank2.slowExitPrechargeCycles 0
i0.defaultMemory.channel0.FRFCFS.channel0.rank0.bank2.actWaits 0
i0.defaultMemory.channel0.FRFCFS.channel0.rank0.bank2.actWaitTotal 0
i0.defaultMemory.channel0.FRFCFS.channel0.rank0.bank2.actWaitAverage -nan
i0.defaultMemory.channel0.FRFCFS.channel0.rank0.bank2.averageEndurance 0
i0.defaultMemory.channel0.FRFCFS.channel0.rank0.bank2.worstCaseEndurance 18446744073709551615
i0.defaultMemory.channel0.FRFCFS.channel0.rank0.bank3.decoder.migratedAccesses 0
i0.defaultMemory.channel0.FRFCFS.channel0.rank0.bank3.subarray0.subArrayEnergy 3.27646e+08mA*t
i0.defaultMemory.channel0.FRFCFS.channel0.rank0.bank3.subarray0.activeEnergy 5.06514e+06mA*t
i0.defaultMemory.channel0.FRFCFS.channel0.rank0.bank3.subarray0.burstEnergy 1.41126e+07mA*t
i0.defaultMemory.channel0.FRFCFS.channel0.rank0.bank3.subarray0.refreshEnergy 3.08468e+08mA*t
i0.defaultMemory.channel0.FRFCFS.channel0.rank0.bank3.subarray0.cancelledWrites 0
i0.defaultMemory.channel0.FRFCFS.channel0.rank0.bank3.subarray0.cancelledWriteTime 0
i0.defaultMemory.channel0.FRFCFS.channel0.rank0.bank3.subarray0.pausedWrites 0
i0.defaultMemory.channel0.FRFCFS.channel0.rank0.bank3.subarray0.averagePausesPerRequest 0
i0.defaultMemory.channel0.FRFCFS.channel0.rank0.bank3.subarray0.measuredPauses 176353
i0.defaultMemory.channel0.FRFCFS.channel0.rank0.bank3.subarray0.averagePausedRequestProgress 0
i0.defaultMemory.channel0.FRFCFS.channel0.rank0.bank3.subarray0.measuredProgresses 0
i0.defaultMemory.channel0.FRFCFS.channel0.rank0.bank3.subarray0.reads 51509
i0.defaultMemory.channel0.FRFCFS.channel0.rank0.bank3.subarray0.writes 176353
i0.defaultMemory.channel0.FRFCFS.channel0.rank0.bank3.subarray0.activates 46576
i0.defaultMemory.channel0.FRFCFS.channel0.rank0.bank3.subarray0.precharges 46576
i0.defaultMemory.channel0.FRFCFS.channel0.rank0.bank3.subarray0.refreshes 144144
i0.defaultMemory.channel0.FRFCFS.channel0.rank0.bank3.subarray0.worstCaseEndurance 18446744073709551615
i0.defaultMemory.channel0.FRFCFS.channel0.rank0.bank3.subarray0.averageEndurance 0
i0.defaultMemory.channel0.FRFCFS.channel0.rank0.bank3.subarray0.actWaits 32130
i0.defaultMemory.channel0.FRFCFS.channel0.rank0.bank3.subarray0.actWaitTotal 361630
i0.defaultMemory.channel0.FRFCFS.channel0.rank0.bank3.subarray0.actWaitAverage 11.2552
i0.defaultMemory.channel0.FRFCFS.channel0.rank0.bank3.subarray0.worstCaseWrite 0
i0.defaultMemory.channel0.FRFCFS.channel0.rank0.bank3.subarray0.num00Writes 0
i0.defaultMemory.channel0.FRFCFS.channel0.rank0.bank3.subarray0.num01Writes 0
i0.defaultMemory.channel0.FRFCFS.channel0.rank0.bank3.subarray0.num10Writes 0
i0.defaultMemory.channel0.FRFCFS.channel0.rank0.bank3.subarray0.num11Writes 0
i0.defaultMemory.channel0.FRFCFS.channel0.rank0.bank3.subarray0.averageWriteTime 0
i0.defaultMemory.channel0.FRFCFS.channel0.rank0.bank3.subarray0.measuredWriteTimes 176353
i0.defaultMemory.channel0.FRFCFS.channel0.rank0.bank3.subarray0.mlcTimingHisto {}
i0.defaultMemory.channel0.FRFCFS.channel0.rank0.bank3.subarray0.cancelCountHisto {0: 176352}
i0.defaultMemory.channel0.FRFCFS.channel0.rank0.bank3.subarray0.wpPauseHisto {}
i0.defaultMemory.channel0.FRFCFS.channel0.rank0.bank3.subarray0.wpCancelHisto {}
i0.defaultMemory.channel0.FRFCFS.channel0.rank0.bank3.bankEnergy 3.27646e+08mA*t
i0.defaultMemory.channel0.FRFCFS.channel0.rank0.bank3.activeEnergy 5.06514e+06mA*t
i0.defaultMemory.channel0.FRFCFS.channel0.rank0.bank3.burstEnergy 1.41126e+07mA*t
i0.defaultMemory.channel0.FRFCFS.channel0.rank0.bank3.refreshEnergy 3.08468e+08mA*t
i0.defaultMemory.channel0.FRFCFS.channel0.rank0.bank3.bankPower 0.00130935W
i0.defaultMemory.channel0.FRFCFS.channel0.rank0.bank3.activePower 2.02416e-05W
i0.defaultMemory.channel0.FRFCFS.channel0.rank0.bank3.burstPower 5.63975e-05W
i0.defaultMemory.channel0.FRFCFS.channel0.rank0.bank3.refreshPower 0.00123272W
i0.defaultMemory.channel0.FRFCFS.channel0.rank0.bank3.bandwidth 207.003MB/s
i0.defaultMemory.channel0.FRFCFS.channel0.rank0.bank3.dataCycles 911448
i0.defaultMemory.channel0.FRFCFS.channel0.rank0.bank3.powerCycles 375351965
i0.defaultMemory.channel0.FRFCFS.channel0.rank0.bank3.utilization 0.00242825
i0.defaultMemory.channel0.FRFCFS.channel0.rank0.bank3.reads 51509
i0.defaultMemory.channel0.FRFCFS.channel0.rank0.bank3.writes 176353
i0.defaultMemory.channel0.FRFCFS.channel0.rank0.bank3.activates 46576
i0.defaultMemory.channel0.FRFCFS.channel0.rank0.bank3.precharges 46576
i0.defaultMemory.channel0.FRFCFS.channel0.rank0.bank3.refreshes 144144
i0.defaultMemory.channel0.FRFCFS.channel0.rank0.bank3.activeCycles 37815252
i0.defaultMemory.channel0.FRFCFS.channel0.rank0.bank3.standbyCycles 337536713
i0.defaultMemory.channel0.FRFCFS.channel0.rank0.bank3.fastExitActiveCycles 0
i0.defaultMemory.channel0.FRFCFS.channel0.rank0.bank3.fastExitPrechargeCycles 0
i0.defaultMemory.channel0.FRFCFS.channel0.rank0.bank3.slowExitPrechargeCycles 0
i0.defaultMemory.channel0.FRFCFS.channel0.rank0.bank3.actWaits 0
i0.defaultMemory.channel0.FRFCFS.channel0.rank0.bank3.actWaitTotal 0
i0.defaultMemory.channel0.FRFCFS.channel0.rank0.bank3.actWaitAverage -nan
i0.defaultMemory.channel0.FRFCFS.channel0.rank0.bank3.averageEndurance 0
i0.defaultMemory.channel0.FRFCFS.channel0.rank0.bank3.worstCaseEndurance 18446744073709551615
i0.defaultMemory.channel0.FRFCFS.channel0.rank0.bank4.decoder.migratedAccesses 0
i0.defaultMemory.channel0.FRFCFS.channel0.rank0.bank4.subarray0.subArrayEnergy 3.28108e+08mA*t
i0.defaultMemory.channel0.FRFCFS.channel0.rank0.bank4.subarray0.activeEnergy 5.22261e+06mA*t
i0.defaultMemory.channel0.FRFCFS.channel0.rank0.bank4.subarray0.burstEnergy 1.44169e+07mA*t
i0.defaultMemory.channel0.FRFCFS.channel0.rank0.bank4.subarray0.refreshEnergy 3.08468e+08mA*t
i0.defaultMemory.channel0.FRFCFS.channel0.rank0.bank4.subarray0.cancelledWrites 0
i0.defaultMemory.channel0.FRFCFS.channel0.rank0.bank4.subarray0.cancelledWriteTime 0
i0.defaultMemory.channel0.FRFCFS.channel0.rank0.bank4.subarray0.pausedWrites 0
i0.defaultMemory.channel0.FRFCFS.channel0.rank0.bank4.subarray0.averagePausesPerRequest 0
i0.defaultMemory.channel0.FRFCFS.channel0.rank0.bank4.subarray0.measuredPauses 179265
i0.defaultMemory.channel0.FRFCFS.channel0.rank0.bank4.subarray0.averagePausedRequestProgress 0
i0.defaultMemory.channel0.FRFCFS.channel0.rank0.bank4.subarray0.measuredProgresses 0
i0.defaultMemory.channel0.FRFCFS.channel0.rank0.bank4.subarray0.reads 53548
i0.defaultMemory.channel0.FRFCFS.channel0.rank0.bank4.subarray0.writes 179265
i0.defaultMemory.channel0.FRFCFS.channel0.rank0.bank4.subarray0.activates 48024
i0.defaultMemory.channel0.FRFCFS.channel0.rank0.bank4.subarray0.precharges 48024
i0.defaultMemory.channel0.FRFCFS.channel0.rank0.bank4.subarray0.refreshes 144144
i0.defaultMemory.channel0.FRFCFS.channel0.rank0.bank4.subarray0.worstCaseEndurance 18446744073709551615
i0.defaultMemory.channel0.FRFCFS.channel0.rank0.bank4.subarray0.averageEndurance 0
i0.defaultMemory.channel0.FRFCFS.channel0.rank0.bank4.subarray0.actWaits 33555
i0.defaultMemory.channel0.FRFCFS.channel0.rank0.bank4.subarray0.actWaitTotal 371787
i0.defaultMemory.channel0.FRFCFS.channel0.rank0.bank4.subarray0.actWaitAverage 11.0799
i0.defaultMemory.channel0.FRFCFS.channel0.rank0.bank4.subarray0.worstCaseWrite 0
i0.defaultMemory.channel0.FRFCFS.channel0.rank0.bank4.subarray0.num00Writes 0
i0.defaultMemory.channel0.FRFCFS.channel0.rank0.bank4.subarray0.num01Writes 0
i0.defaultMemory.channel0.FRFCFS.channel0.rank0.bank4.subarray0.num10Writes 0
i0.defaultMemory.channel0.FRFCFS.channel0.rank0.bank4.subarray0.num11Writes 0
i0.defaultMemory.channel0.FRFCFS.channel0.rank0.bank4.subarray0.averageWriteTime 0
i0.defaultMemory.channel0.FRFCFS.channel0.rank0.bank4.subarray0.measuredWriteTimes 179265
i0.defaultMemory.channel0.FRFCFS.channel0.rank0.bank4.subarray0.mlcTimingHisto {}
i0.defaultMemory.channel0.FRFCFS.channel0.rank0.bank4.subarray0.cancelCountHisto {0: 179264}
i0.defaultMemory.channel0.FRFCFS.channel0.rank0.bank4.subarray0.wpPauseHisto {}
i0.defaultMemory.channel0.FRFCFS.channel0.rank0.bank4.subarray0.wpCancelHisto {}
i0.defaultMemory.channel0.FRFCFS.channel0.rank0.bank4.bankEnergy 3.28108e+08mA*t
i0.defaultMemory.channel0.FRFCFS.channel0.rank0.bank4.activeEnergy 5.22261e+06mA*t
i0.defaultMemory.channel0.FRFCFS.channel0.rank0.bank4.burstEnergy 1.44169e+07mA*t
i0.defaultMemory.channel0.FRFCFS.channel0.rank0.bank4.refreshEnergy 3.08468e+08mA*t
i0.defaultMemory.channel0.FRFCFS.channel0.rank0.bank4.bankPower 0.0013112W
i0.defaultMemory.channel0.FRFCFS.channel0.rank0.bank4.activePower 2.08709e-05W
i0.defaultMemory.channel0.FRFCFS.channel0.rank0.bank4.burstPower 5.76137e-05W
i0.defaultMemory.channel0.FRFCFS.channel0.rank0.bank4.refreshPower 0.00123272W
i0.defaultMemory.channel0.FRFCFS.channel0.rank0.bank4.bandwidth 211.501MB/s
i0.defaultMemory.channel0.FRFCFS.channel0.rank0.bank4.dataCycles 931252
i0.defaultMemory.channel0.FRFCFS.channel0.rank0.bank4.powerCycles 375351965
i0.defaultMemory.channel0.FRFCFS.channel0.rank0.bank4.utilization 0.00248101
i0.defaultMemory.channel0.FRFCFS.channel0.rank0.bank4.reads 53548
i0.defaultMemory.channel0.FRFCFS.channel0.rank0.bank4.writes 179265
i0.defaultMemory.channel0.FRFCFS.channel0.rank0.bank4.activates 48024
i0.defaultMemory.channel0.FRFCFS.channel0.rank0.bank4.precharges 48024
i0.defaultMemory.channel0.FRFCFS.channel0.rank0.bank4.refreshes 144144
i0.defaultMemory.channel0.FRFCFS.channel0.rank0.bank4.activeCycles 38147932
i0.defaultMemory.channel0.FRFCFS.channel0.rank0.bank4.standbyCycles 337204033
i0.defaultMemory.channel0.FRFCFS.channel0.rank0.bank4.fastExitActiveCycles 0
i0.defaultMemory.channel0.FRFCFS.channel0.rank0.bank4.fastExitPrechargeCycles 0
i0.defaultMemory.channel0.FRFCFS.channel0.rank0.bank4.slowExitPrechargeCycles 0
i0.defaultMemory.channel0.FRFCFS.channel0.rank0.bank4.actWaits 0
i0.defaultMemory.channel0.FRFCFS.channel0.rank0.bank4.actWaitTotal 0
i0.defaultMemory.channel0.FRFCFS.channel0.rank0.bank4.actWaitAverage -nan
i0.defaultMemory.channel0.FRFCFS.channel0.rank0.bank4.averageEndurance 0
i0.defaultMemory.channel0.FRFCFS.channel0.rank0.bank4.worstCaseEndurance 18446744073709551615
i0.defaultMemory.channel0.FRFCFS.channel0.rank0.bank5.decoder.migratedAccesses 0
i0.defaultMemory.channel0.FRFCFS.channel0.rank0.bank5.subarray0.subArrayEnergy 3.27559e+08mA*t
i0.defaultMemory.channel0.FRFCFS.channel0.rank0.bank5.subarray0.activeEnergy 4.90724e+06mA*t
i0.defaultMemory.channel0.FRFCFS.channel0.rank0.bank5.subarray0.burstEnergy 1.41841e+07mA*t
i0.defaultMemory.channel0.FRFCFS.channel0.rank0.bank5.subarray0.refreshEnergy 3.08468e+08mA*t
i0.defaultMemory.channel0.FRFCFS.channel0.rank0.bank5.subarray0.cancelledWrites 0
i0.defaultMemory.channel0.FRFCFS.channel0.rank0.bank5.subarray0.cancelledWriteTime 0
i0.defaultMemory.channel0.FRFCFS.channel0.rank0.bank5.subarray0.pausedWrites 0
i0.defaultMemory.channel0.FRFCFS.channel0.rank0.bank5.subarray0.averagePausesPerRequest 0
i0.defaultMemory.channel0.FRFCFS.channel0.rank0.bank5.subarray0.measuredPauses 177917
i0.defaultMemory.channel0.FRFCFS.channel0.rank0.bank5.subarray0.averagePausedRequestProgress 0
i0.defaultMemory.channel0.FRFCFS.channel0.rank0.bank5.subarray0.measuredProgresses 0
i0.defaultMemory.channel0.FRFCFS.channel0.rank0.bank5.subarray0.reads 51071
i0.defaultMemory.channel0.FRFCFS.channel0.rank0.bank5.subarray0.writes 177917
i0.defaultMemory.channel0.FRFCFS.channel0.rank0.bank5.subarray0.activates 45124
i0.defaultMemory.channel0.FRFCFS.channel0.rank0.bank5.subarray0.precharges 45124
i0.defaultMemory.channel0.FRFCFS.channel0.rank0.bank5.subarray0.refreshes 144144
i0.defaultMemory.channel0.FRFCFS.channel0.rank0.bank5.subarray0.worstCaseEndurance 18446744073709551615
i0.defaultMemory.channel0.FRFCFS.channel0.rank0.bank5.subarray0.averageEndurance 0
i0.defaultMemory.channel0.FRFCFS.channel0.rank0.bank5.subarray0.actWaits 30500
i0.defaultMemory.channel0.FRFCFS.channel0.rank0.bank5.subarray0.actWaitTotal 347053
i0.defaultMemory.channel0.FRFCFS.channel0.rank0.bank5.subarray0.actWaitAverage 11.3788
i0.defaultMemory.channel0.FRFCFS.channel0.rank0.bank5.subarray0.worstCaseWrite 0
i0.defaultMemory.channel0.FRFCFS.channel0.rank0.bank5.subarray0.num00Writes 0
i0.defaultMemory.channel0.FRFCFS.channel0.rank0.bank5.subarray0.num01Writes 0
i0.defaultMemory.channel0.FRFCFS.channel0.rank0.bank5.subarray0.num10Writes 0
i0.defaultMemory.channel0.FRFCFS.channel0.rank0.bank5.subarray0.num11Writes 0
i0.defaultMemory.channel0.FRFCFS.channel0.rank0.bank5.subarray0.averageWriteTime 0
i0.defaultMemory.channel0.FRFCFS.channel0.rank0.bank5.subarray0.measuredWriteTimes 177917
i0.defaultMemory.channel0.FRFCFS.channel0.rank0.bank5.subarray0.mlcTimingHisto {}
i0.defaultMemory.channel0.FRFCFS.channel0.rank0.bank5.subarray0.cancelCountHisto {0: 177916}
i0.defaultMemory.channel0.FRFCFS.channel0.rank0.bank5.subarray0.wpPauseHisto {}
i0.defaultMemory.channel0.FRFCFS.channel0.rank0.bank5.subarray0.wpCancelHisto {}
i0.defaultMemory.channel0.FRFCFS.channel0.rank0.bank5.bankEnergy 3.27559e+08mA*t
i0.defaultMemory.channel0.FRFCFS.channel0.rank0.bank5.activeEnergy 4.90724e+06mA*t
i0.defaultMemory.channel0.FRFCFS.channel0.rank0.bank5.burstEnergy 1.41841e+07mA*t
i0.defaultMemory.channel0.FRFCFS.channel0.rank0.bank5.refreshEnergy 3.08468e+08mA*t
i0.defaultMemory.channel0.FRFCFS.channel0.rank0.bank5.bankPower 0.00130901W
i0.defaultMemory.channel0.FRFCFS.channel0.rank0.bank5.activePower 1.96105e-05W
i0.defaultMemory.channel0.FRFCFS.channel0.rank0.bank5.burstPower 5.66831e-05W
i0.defaultMemory.channel0.FRFCFS.channel0.rank0.bank5.refreshPower 0.00123272W
i0.defaultMemory.channel0.FRFCFS.channel0.rank0.bank5.bandwidth 208.026MB/s
i0.defaultMemory.channel0.FRFCFS.channel0.rank0.bank5.dataCycles 915952
i0.defaultMemory.channel0.FRFCFS.channel0.rank0.bank5.powerCycles 375351965
i0.defaultMemory.channel0.FRFCFS.channel0.rank0.bank5.utilization 0.00244025
i0.defaultMemory.channel0.FRFCFS.channel0.rank0.bank5.reads 51071
i0.defaultMemory.channel0.FRFCFS.channel0.rank0.bank5.writes 177917
i0.defaultMemory.channel0.FRFCFS.channel0.rank0.bank5.activates 45124
i0.defaultMemory.channel0.FRFCFS.channel0.rank0.bank5.precharges 45124
i0.defaultMemory.channel0.FRFCFS.channel0.rank0.bank5.refreshes 144144
i0.defaultMemory.channel0.FRFCFS.channel0.rank0.bank5.activeCycles 37868129
i0.defaultMemory.channel0.FRFCFS.channel0.rank0.bank5.standbyCycles 337483836
i0.defaultMemory.channel0.FRFCFS.channel0.rank0.bank5.fastExitActiveCycles 0
i0.defaultMemory.channel0.FRFCFS.channel0.rank0.bank5.fastExitPrechargeCycles 0
i0.defaultMemory.channel0.FRFCFS.channel0.rank0.bank5.slowExitPrechargeCycles 0
i0.defaultMemory.channel0.FRFCFS.channel0.rank0.bank5.actWaits 0
i0.defaultMemory.channel0.FRFCFS.channel0.rank0.bank5.actWaitTotal 0
i0.defaultMemory.channel0.FRFCFS.channel0.rank0.bank5.actWaitAverage -nan
i0.defaultMemory.channel0.FRFCFS.channel0.rank0.bank5.averageEndurance 0
i0.defaultMemory.channel0.FRFCFS.channel0.rank0.bank5.worstCaseEndurance 18446744073709551615
i0.defaultMemory.channel0.FRFCFS.channel0.rank0.bank6.decoder.migratedAccesses 0
i0.defaultMemory.channel0.FRFCFS.channel0.rank0.bank6.subarray0.subArrayEnergy 3.27063e+08mA*t
i0.defaultMemory.channel0.FRFCFS.channel0.rank0.bank6.subarray0.activeEnergy 4.80142e+06mA*t
i0.defaultMemory.channel0.FRFCFS.channel0.rank0.bank6.subarray0.burstEnergy 1.3793e+07mA*t
i0.defaultMemory.channel0.FRFCFS.channel0.rank0.bank6.subarray0.refreshEnergy 3.08468e+08mA*t
i0.defaultMemory.channel0.FRFCFS.channel0.rank0.bank6.subarray0.cancelledWrites 0
i0.defaultMemory.channel0.FRFCFS.channel0.rank0.bank6.subarray0.cancelledWriteTime 0
i0.defaultMemory.channel0.FRFCFS.channel0.rank0.bank6.subarray0.pausedWrites 0
i0.defaultMemory.channel0.FRFCFS.channel0.rank0.bank6.subarray0.averagePausesPerRequest 0
i0.defaultMemory.channel0.FRFCFS.channel0.rank0.bank6.subarray0.measuredPauses 172773
i0.defaultMemory.channel0.FRFCFS.channel0.rank0.bank6.subarray0.averagePausedRequestProgress 0
i0.defaultMemory.channel0.FRFCFS.channel0.rank0.bank6.subarray0.measuredProgresses 0
i0.defaultMemory.channel0.FRFCFS.channel0.rank0.bank6.subarray0.reads 49912
i0.defaultMemory.channel0.FRFCFS.channel0.rank0.bank6.subarray0.writes 172773
i0.defaultMemory.channel0.FRFCFS.channel0.rank0.bank6.subarray0.activates 44151
i0.defaultMemory.channel0.FRFCFS.channel0.rank0.bank6.subarray0.precharges 44151
i0.defaultMemory.channel0.FRFCFS.channel0.rank0.bank6.subarray0.refreshes 144144
i0.defaultMemory.channel0.FRFCFS.channel0.rank0.bank6.subarray0.worstCaseEndurance 18446744073709551615
i0.defaultMemory.channel0.FRFCFS.channel0.rank0.bank6.subarray0.averageEndurance 0
i0.defaultMemory.channel0.FRFCFS.channel0.rank0.bank6.subarray0.actWaits 29611
i0.defaultMemory.channel0.FRFCFS.channel0.rank0.bank6.subarray0.actWaitTotal 339064
i0.defaultMemory.channel0.FRFCFS.channel0.rank0.bank6.subarray0.actWaitAverage 11.4506
i0.defaultMemory.channel0.FRFCFS.channel0.rank0.bank6.subarray0.worstCaseWrite 0
i0.defaultMemory.channel0.FRFCFS.channel0.rank0.bank6.subarray0.num00Writes 0
i0.defaultMemory.channel0.FRFCFS.channel0.rank0.bank6.subarray0.num01Writes 0
i0.defaultMemory.channel0.FRFCFS.channel0.rank0.bank6.subarray0.num10Writes 0
i0.defaultMemory.channel0.FRFCFS.channel0.rank0.bank6.subarray0.num11Writes 0
i0.defaultMemory.channel0.FRFCFS.channel0.rank0.bank6.subarray0.averageWriteTime 0
i0.defaultMemory.channel0.FRFCFS.channel0.rank0.bank6.subarray0.measuredWriteTimes 172773
i0.defaultMemory.channel0.FRFCFS.channel0.rank0.bank6.subarray0.mlcTimingHisto {}
i0.defaultMemory.channel0.FRFCFS.channel0.rank0.bank6.subarray0.cancelCountHisto {0: 172772}
i0.defaultMemory.channel0.FRFCFS.channel0.rank0.bank6.subarray0.wpPauseHisto {}
i0.defaultMemory.channel0.FRFCFS.channel0.rank0.bank6.subarray0.wpCancelHisto {}
i0.defaultMemory.channel0.FRFCFS.channel0.rank0.bank6.bankEnergy 3.27063e+08mA*t
i0.defaultMemory.channel0.FRFCFS.channel0.rank0.bank6.activeEnergy 4.80142e+06mA*t
i0.defaultMemory.channel0.FRFCFS.channel0.rank0.bank6.burstEnergy 1.3793e+07mA*t
i0.defaultMemory.channel0.FRFCFS.channel0.rank0.bank6.refreshEnergy 3.08468e+08mA*t
i0.defaultMemory.channel0.FRFCFS.channel0.rank0.bank6.bankPower 0.00130702W
i0.defaultMemory.channel0.FRFCFS.channel0.rank0.bank6.activePower 1.91877e-05W
i0.defaultMemory.channel0.FRFCFS.channel0.rank0.bank6.burstPower 5.51204e-05W
i0.defaultMemory.channel0.FRFCFS.channel0.rank0.bank6.refreshPower 0.00123272W
i0.defaultMemory.channel0.FRFCFS.channel0.rank0.bank6.bandwidth 202.3MB/s
i0.defaultMemory.channel0.FRFCFS.channel0.rank0.bank6.dataCycles 890740
i0.defaultMemory.channel0.FRFCFS.channel0.rank0.bank6.powerCycles 375351965
i0.defaultMemory.channel0.FRFCFS.channel0.rank0.bank6.utilization 0.00237308
i0.defaultMemory.channel0.FRFCFS.channel0.rank0.bank6.reads 49912
i0.defaultMemory.channel0.FRFCFS.channel0.rank0.bank6.writes 172773
i0.defaultMemory.channel0.FRFCFS.channel0.rank0.bank6.activates 44151
i0.defaultMemory.channel0.FRFCFS.channel0.rank0.bank6.precharges 44151
i0.defaultMemory.channel0.FRFCFS.channel0.rank0.bank6.refreshes 144144
i0.defaultMemory.channel0.FRFCFS.channel0.rank0.bank6.activeCycles 37606666
i0.defaultMemory.channel0.FRFCFS.channel0.rank0.bank6.standbyCycles 337745299
i0.defaultMemory.channel0.FRFCFS.channel0.rank0.bank6.fastExitActiveCycles 0
i0.defaultMemory.channel0.FRFCFS.channel0.rank0.bank6.fastExitPrechargeCycles 0
i0.defaultMemory.channel0.FRFCFS.channel0.rank0.bank6.slowExitPrechargeCycles 0
i0.defaultMemory.channel0.FRFCFS.channel0.rank0.bank6.actWaits 0
i0.defaultMemory.channel0.FRFCFS.channel0.rank0.bank6.actWaitTotal 0
i0.defaultMemory.channel0.FRFCFS.channel0.rank0.bank6.actWaitAverage -nan
i0.defaultMemory.channel0.FRFCFS.channel0.rank0.bank6.averageEndurance 0
i0.defaultMemory.channel0.FRFCFS.channel0.rank0.bank6.worstCaseEndurance 18446744073709551615
i0.defaultMemory.channel0.FRFCFS.channel0.rank0.bank7.decoder.migratedAccesses 0
i0.defaultMemory.channel0.FRFCFS.channel0.rank0.bank7.subarray0.subArrayEnergy 3.2772e+08mA*t
i0.defaultMemory.channel0.FRFCFS.channel0.rank0.bank7.subarray0.activeEnergy 5.05666e+06mA*t
i0.defaultMemory.channel0.FRFCFS.channel0.rank0.bank7.subarray0.burstEnergy 1.41949e+07mA*t
i0.defaultMemory.channel0.FRFCFS.channel0.rank0.bank7.subarray0.refreshEnergy 3.08468e+08mA*t
i0.defaultMemory.channel0.FRFCFS.channel0.rank0.bank7.subarray0.cancelledWrites 0
i0.defaultMemory.channel0.FRFCFS.channel0.rank0.bank7.subarray0.cancelledWriteTime 0
i0.defaultMemory.channel0.FRFCFS.channel0.rank0.bank7.subarray0.pausedWrites 0
i0.defaultMemory.channel0.FRFCFS.channel0.rank0.bank7.subarray0.averagePausesPerRequest 0
i0.defaultMemory.channel0.FRFCFS.channel0.rank0.bank7.subarray0.measuredPauses 177186
i0.defaultMemory.channel0.FRFCFS.channel0.rank0.bank7.subarray0.averagePausedRequestProgress 0
i0.defaultMemory.channel0.FRFCFS.channel0.rank0.bank7.subarray0.measuredProgresses 0
i0.defaultMemory.channel0.FRFCFS.channel0.rank0.bank7.subarray0.reads 52013
i0.defaultMemory.channel0.FRFCFS.channel0.rank0.bank7.subarray0.writes 177186
i0.defaultMemory.channel0.FRFCFS.channel0.rank0.bank7.subarray0.activates 46498
i0.defaultMemory.channel0.FRFCFS.channel0.rank0.bank7.subarray0.precharges 46498
i0.defaultMemory.channel0.FRFCFS.channel0.rank0.bank7.subarray0.refreshes 144144
i0.defaultMemory.channel0.FRFCFS.channel0.rank0.bank7.subarray0.worstCaseEndurance 18446744073709551615
i0.defaultMemory.channel0.FRFCFS.channel0.rank0.bank7.subarray0.averageEndurance 0
i0.defaultMemory.channel0.FRFCFS.channel0.rank0.bank7.subarray0.actWaits 31870
i0.defaultMemory.channel0.FRFCFS.channel0.rank0.bank7.subarray0.actWaitTotal 366116
i0.defaultMemory.channel0.FRFCFS.channel0.rank0.bank7.subarray0.actWaitAverage 11.4878
i0.defaultMemory.channel0.FRFCFS.channel0.rank0.bank7.subarray0.worstCaseWrite 0
i0.defaultMemory.channel0.FRFCFS.channel0.rank0.bank7.subarray0.num00Writes 0
i0.defaultMemory.channel0.FRFCFS.channel0.rank0.bank7.subarray0.num01Writes 0
i0.defaultMemory.channel0.FRFCFS.channel0.rank0.bank7.subarray0.num10Writes 0
i0.defaultMemory.channel0.FRFCFS.channel0.rank0.bank7.subarray0.num11Writes 0
i0.defaultMemory.channel0.FRFCFS.channel0.rank0.bank7.subarray0.averageWriteTime 0
i0.defaultMemory.channel0.FRFCFS.channel0.rank0.bank7.subarray0.measuredWriteTimes 177186
i0.defaultMemory.channel0.FRFCFS.channel0.rank0.bank7.subarray0.mlcTimingHisto {}
i0.defaultMemory.channel0.FRFCFS.channel0.rank0.bank7.subarray0.cancelCountHisto {0: 177185}
i0.defaultMemory.channel0.FRFCFS.channel0.rank0.bank7.subarray0.wpPauseHisto {}
i0.defaultMemory.channel0.FRFCFS.channel0.rank0.bank7.subarray0.wpCancelHisto {}
i0.defaultMemory.channel0.FRFCFS.channel0.rank0.bank7.bankEnergy 3.2772e+08mA*t
i0.defaultMemory.channel0.FRFCFS.channel0.rank0.bank7.activeEnergy 5.05666e+06mA*t
i0.defaultMemory.channel0.FRFCFS.channel0.rank0.bank7.burstEnergy 1.41949e+07mA*t
i0.defaultMemory.channel0.FRFCFS.channel0.rank0.bank7.refreshEnergy 3.08468e+08mA*t
i0.defaultMemory.channel0.FRFCFS.channel0.rank0.bank7.bankPower 0.00130965W
i0.defaultMemory.channel0.FRFCFS.channel0.rank0.bank7.activePower 2.02077e-05W
i0.defaultMemory.channel0.FRFCFS.channel0.rank0.bank7.burstPower 5.67264e-05W
i0.defaultMemory.channel0.FRFCFS.channel0.rank0.bank7.refreshPower 0.00123272W
i0.defaultMemory.channel0.FRFCFS.channel0.rank0.bank7.bandwidth 208.218MB/s
i0.defaultMemory.channel0.FRFCFS.channel0.rank0.bank7.dataCycles 916796
i0.defaultMemory.channel0.FRFCFS.channel0.rank0.bank7.powerCycles 375351965
i0.defaultMemory.channel0.FRFCFS.channel0.rank0.bank7.utilization 0.0024425
i0.defaultMemory.channel0.FRFCFS.channel0.rank0.bank7.reads 52013
i0.defaultMemory.channel0.FRFCFS.channel0.rank0.bank7.writes 177186
i0.defaultMemory.channel0.FRFCFS.channel0.rank0.bank7.activates 46498
i0.defaultMemory.channel0.FRFCFS.channel0.rank0.bank7.precharges 46498
i0.defaultMemory.channel0.FRFCFS.channel0.rank0.bank7.refreshes 144144
i0.defaultMemory.channel0.FRFCFS.channel0.rank0.bank7.activeCycles 38460667
i0.defaultMemory.channel0.FRFCFS.channel0.rank0.bank7.standbyCycles 336891298
i0.defaultMemory.channel0.FRFCFS.channel0.rank0.bank7.fastExitActiveCycles 0
i0.defaultMemory.channel0.FRFCFS.channel0.rank0.bank7.fastExitPrechargeCycles 0
i0.defaultMemory.channel0.FRFCFS.channel0.rank0.bank7.slowExitPrechargeCycles 0
i0.defaultMemory.channel0.FRFCFS.channel0.rank0.bank7.actWaits 0
i0.defaultMemory.channel0.FRFCFS.channel0.rank0.bank7.actWaitTotal 0
i0.defaultMemory.channel0.FRFCFS.channel0.rank0.bank7.actWaitAverage -nan
i0.defaultMemory.channel0.FRFCFS.channel0.rank0.bank7.averageEndurance 0
i0.defaultMemory.channel0.FRFCFS.channel0.rank0.bank7.worstCaseEndurance 18446744073709551615
i0.defaultMemory.channel0.FRFCFS.channel0.rank0.totalEnergy 1.40166e+11mA*t
i0.defaultMemory.channel0.FRFCFS.channel0.rank0.backgroundEnergy 1.16581e+11mA*t
i0.defaultMemory.channel0.FRFCFS.channel0.rank0.activateEnergy 3.1767e+08mA*t
i0.defaultMemory.channel0.FRFCFS.channel0.rank0.burstEnergy 9.04962e+08mA*t
i0.defaultMemory.channel0.FRFCFS.channel0.rank0.refreshEnergy 1.9742e+10mA*t
i0.defaultMemory.channel0.FRFCFS.channel0.rank0.totalPower 0.142016W
i0.defaultMemory.channel0.FRFCFS.channel0.rank0.backgroundPower 0.0582358W
i0.defaultMemory.channel0.FRFCFS.channel0.rank0.activatePower 0.00126949W
i0.defaultMemory.channel0.FRFCFS.channel0.rank0.burstPower 0.00361646W
i0.defaultMemory.channel0.FRFCFS.channel0.rank0.refreshPower 0.0788938W
i0.defaultMemory.channel0.FRFCFS.channel0.rank0.reads 413975
i0.defaultMemory.channel0.FRFCFS.channel0.rank0.writes 1412509
i0.defaultMemory.channel0.FRFCFS.channel0.rank0.activeCycles 228200582
i0.defaultMemory.channel0.FRFCFS.channel0.rank0.standbyCycles 147151383
i0.defaultMemory.channel0.FRFCFS.channel0.rank0.fastExitActiveCycles 0
i0.defaultMemory.channel0.FRFCFS.channel0.rank0.fastExitPrechargeCycles 0
i0.defaultMemory.channel0.FRFCFS.channel0.rank0.slowExitCycles 0
i0.defaultMemory.channel0.FRFCFS.channel0.rank0.actWaits 16110
i0.defaultMemory.channel0.FRFCFS.channel0.rank0.actWaitTotal 53330
i0.defaultMemory.channel0.FRFCFS.channel0.rank0.actWaitAverage 3.31037
i0.defaultMemory.channel0.FRFCFS.channel0.rank0.rrdWaits 16111
i0.defaultMemory.channel0.FRFCFS.channel0.rank0.rrdWaitTotal 53334
i0.defaultMemory.channel0.FRFCFS.channel0.rank0.rrdWaitAverage 3.31041
i0.defaultMemory.channel0.FRFCFS.channel0.rank0.fawWaits 1
i0.defaultMemory.channel0.FRFCFS.channel0.rank0.fawWaitTotal 19
i0.defaultMemory.channel0.FRFCFS.channel0.rank0.fawWaitAverage 19
i0.defaultMemory.channel0.FRFCFS.mem_reads 413975
i0.defaultMemory.channel0.FRFCFS.mem_writes 1412509
i0.defaultMemory.channel0.FRFCFS.rb_hits 1461346
i0.defaultMemory.channel0.FRFCFS.rb_miss 365138
i0.defaultMemory.channel0.FRFCFS.starvation_precharges 8080
i0.defaultMemory.channel0.FRFCFS.averageLatency 31.282
i0.defaultMemory.channel0.FRFCFS.averageQueueLatency 3.46889
i0.defaultMemory.channel0.FRFCFS.averageTotalLatency 34.7509
i0.defaultMemory.channel0.FRFCFS.measuredLatencies 1826484
i0.defaultMemory.channel0.FRFCFS.measuredQueueLatencies 1826484
i0.defaultMemory.channel0.FRFCFS.measuredTotalLatencies 1826484
i0.defaultMemory.channel0.FRFCFS.write_pauses 0
i0.defaultMemory.channel0.FRFCFS.simulation_cycles 375351965
i0.defaultMemory.channel0.FRFCFS.wakeupCount 4600063
i0.defaultMemory.channel1.FRFCFS-WQF.decoder.migratedAccesses 0
i0.defaultMemory.channel1.FRFCFS-WQF.channel1.decoder.migratedAccesses 0
i0.defaultMemory.channel1.FRFCFS-WQF.channel1.rank0.decoder.migratedAccesses 0
i0.defaultMemory.channel1.FRFCFS-WQF.channel1.rank0.bank0.decoder.migratedAccesses 0
i0.defaultMemory.channel1.FRFCFS-WQF.channel1.rank0.bank0.subarray0.subArrayEnergy 9.44155e+06nJ
i0.defaultMemory.channel1.FRFCFS-WQF.channel1.rank0.bank0.subarray0.activeEnergy 3149.75nJ
i0.defaultMemory.channel1.FRFCFS-WQF.channel1.rank0.bank0.subarray0.burstEnergy 381492nJ
i0.defaultMemory.channel1.FRFCFS-WQF.channel1.rank0.bank0.subarray0.writeEnergy 9.05691e+06nJ
i0.defaultMemory.channel1.FRFCFS-WQF.channel1.rank0.bank0.subarray0.refreshEnergy 0nJ
i0.defaultMemory.channel1.FRFCFS-WQF.channel1.rank0.bank0.subarray0.cancelledWrites 0
i0.defaultMemory.channel1.FRFCFS-WQF.channel1.rank0.bank0.subarray0.cancelledWriteTime 0
i0.defaultMemory.channel1.FRFCFS-WQF.channel1.rank0.bank0.subarray0.pausedWrites 0
i0.defaultMemory.channel1.FRFCFS-WQF.channel1.rank0.bank0.subarray0.averagePausesPerRequest 0
i0.defaultMemory.channel1.FRFCFS-WQF.channel1.rank0.bank0.subarray0.measuredPauses 226177
i0.defaultMemory.channel1.FRFCFS-WQF.channel1.rank0.bank0.subarray0.averagePausedRequestProgress 0
i0.defaultMemory.channel1.FRFCFS-WQF.channel1.rank0.bank0.subarray0.measuredProgresses 0
i0.defaultMemory.channel1.FRFCFS-WQF.channel1.rank0.bank0.subarray0.reads 263743
i0.defaultMemory.channel1.FRFCFS-WQF.channel1.rank0.bank0.subarray0.writes 226177
i0.defaultMemory.channel1.FRFCFS-WQF.channel1.rank0.bank0.subarray0.activates 38790
i0.defaultMemory.channel1.FRFCFS-WQF.channel1.rank0.bank0.subarray0.precharges 38789
i0.defaultMemory.channel1.FRFCFS-WQF.channel1.rank0.bank0.subarray0.refreshes 0
i0.defaultMemory.channel1.FRFCFS-WQF.channel1.rank0.bank0.subarray0.worstCaseEndurance 18446744073709551615
i0.defaultMemory.channel1.FRFCFS-WQF.channel1.rank0.bank0.subarray0.averageEndurance 0
i0.defaultMemory.channel1.FRFCFS-WQF.channel1.rank0.bank0.subarray0.actWaits 0
i0.defaultMemory.channel1.FRFCFS-WQF.channel1.rank0.bank0.subarray0.actWaitTotal 0
i0.defaultMemory.channel1.FRFCFS-WQF.channel1.rank0.bank0.subarray0.actWaitAverage -nan
i0.defaultMemory.channel1.FRFCFS-WQF.channel1.rank0.bank0.subarray0.worstCaseWrite 0
i0.defaultMemory.channel1.FRFCFS-WQF.channel1.rank0.bank0.subarray0.num00Writes 0
i0.defaultMemory.channel1.FRFCFS-WQF.channel1.rank0.bank0.subarray0.num01Writes 0
i0.defaultMemory.channel1.FRFCFS-WQF.channel1.rank0.bank0.subarray0.num10Writes 0
i0.defaultMemory.channel1.FRFCFS-WQF.channel1.rank0.bank0.subarray0.num11Writes 0
i0.defaultMemory.channel1.FRFCFS-WQF.channel1.rank0.bank0.subarray0.averageWriteTime 60
i0.defaultMemory.channel1.FRFCFS-WQF.channel1.rank0.bank0.subarray0.measuredWriteTimes 226177
i0.defaultMemory.channel1.FRFCFS-WQF.channel1.rank0.bank0.subarray0.mlcTimingHisto {}
i0.defaultMemory.channel1.FRFCFS-WQF.channel1.rank0.bank0.subarray0.cancelCountHisto {0: 226176}
i0.defaultMemory.channel1.FRFCFS-WQF.channel1.rank0.bank0.subarray0.wpPauseHisto {}
i0.defaultMemory.channel1.FRFCFS-WQF.channel1.rank0.bank0.subarray0.wpCancelHisto {}
i0.defaultMemory.channel1.FRFCFS-WQF.channel1.rank0.bank0.bankEnergy 9.44155e+06nJ
i0.defaultMemory.channel1.FRFCFS-WQF.channel1.rank0.bank0.activeEnergy 3149.75nJ
i0.defaultMemory.channel1.FRFCFS-WQF.channel1.rank0.bank0.burstEnergy 381492nJ
i0.defaultMemory.channel1.FRFCFS-WQF.channel1.rank0.bank0.refreshEnergy 0nJ
i0.defaultMemory.channel1.FRFCFS-WQF.channel1.rank0.bank0.bankPower 2.51539e+07W
i0.defaultMemory.channel1.FRFCFS-WQF.channel1.rank0.bank0.activePower 8391.45W
[...]
i0.defaultMemory.channel3.FRFCFS-WQF.channel3.rank0.bank5.subarray0.measuredPauses 228991
i0.defaultMemory.channel3.FRFCFS-WQF.channel3.rank0.bank5.subarray0.averagePausedRequestProgress 0
i0.defaultMemory.channel3.FRFCFS-WQF.channel3.rank0.bank5.subarray0.measuredProgresses 0
i0.defaultMemory.channel3.FRFCFS-WQF.channel3.rank0.bank5.subarray0.reads 275608
i0.defaultMemory.channel3.FRFCFS-WQF.channel3.rank0.bank5.subarray0.writes 228991
i0.defaultMemory.channel3.FRFCFS-WQF.channel3.rank0.bank5.subarray0.activates 40023
i0.defaultMemory.channel3.FRFCFS-WQF.channel3.rank0.bank5.subarray0.precharges 40022
i0.defaultMemory.channel3.FRFCFS-WQF.channel3.rank0.bank5.subarray0.refreshes 0
i0.defaultMemory.channel3.FRFCFS-WQF.channel3.rank0.bank5.subarray0.worstCaseEndurance 18446744073709551615
i0.defaultMemory.channel3.FRFCFS-WQF.channel3.rank0.bank5.subarray0.averageEndurance 0
i0.defaultMemory.channel3.FRFCFS-WQF.channel3.rank0.bank5.subarray0.actWaits 0
i0.defaultMemory.channel3.FRFCFS-WQF.channel3.rank0.bank5.subarray0.actWaitTotal 0
i0.defaultMemory.channel3.FRFCFS-WQF.channel3.rank0.bank5.subarray0.actWaitAverage -nan
i0.defaultMemory.channel3.FRFCFS-WQF.channel3.rank0.bank5.subarray0.worstCaseWrite 0
i0.defaultMemory.channel3.FRFCFS-WQF.channel3.rank0.bank5.subarray0.num00Writes 0
i0.defaultMemory.channel3.FRFCFS-WQF.channel3.rank0.bank5.subarray0.num01Writes 0
i0.defaultMemory.channel3.FRFCFS-WQF.channel3.rank0.bank5.subarray0.num10Writes 0
i0.defaultMemory.channel3.FRFCFS-WQF.channel3.rank0.bank5.subarray0.num11Writes 0
i0.defaultMemory.channel3.FRFCFS-WQF.channel3.rank0.bank5.subarray0.averageWriteTime 60
i0.defaultMemory.channel3.FRFCFS-WQF.channel3.rank0.bank5.subarray0.measuredWriteTimes 228991
i0.defaultMemory.channel3.FRFCFS-WQF.channel3.rank0.bank5.subarray0.mlcTimingHisto {}
i0.defaultMemory.channel3.FRFCFS-WQF.channel3.rank0.bank5.subarray0.cancelCountHisto {0: 228990}
i0.defaultMemory.channel3.FRFCFS-WQF.channel3.rank0.bank5.subarray0.wpPauseHisto {}
i0.defaultMemory.channel3.FRFCFS-WQF.channel3.rank0.bank5.subarray0.wpCancelHisto {}
i0.defaultMemory.channel3.FRFCFS-WQF.channel3.rank0.bank5.bankEnergy 9.55889e+06nJ
i0.defaultMemory.channel3.FRFCFS-WQF.channel3.rank0.bank5.activeEnergy 3249.87nJ
i0.defaultMemory.channel3.FRFCFS-WQF.channel3.rank0.bank5.burstEnergy 386252nJ
i0.defaultMemory.channel3.FRFCFS-WQF.channel3.rank0.bank5.refreshEnergy 0nJ
i0.defaultMemory.channel3.FRFCFS-WQF.channel3.rank0.bank5.bankPower 2.54665e+07W
i0.defaultMemory.channel3.FRFCFS-WQF.channel3.rank0.bank5.activePower 8658.19W
i0.defaultMemory.channel3.FRFCFS-WQF.channel3.rank0.bank5.burstPower 1.02904e+06W
i0.defaultMemory.channel3.FRFCFS-WQF.channel3.rank0.bank5.refreshPower 0W
i0.defaultMemory.channel3.FRFCFS-WQF.channel3.rank0.bank5.bandwidth 459.096MB/s
i0.defaultMemory.channel3.FRFCFS-WQF.channel3.rank0.bank5.dataCycles 2018396
i0.defaultMemory.channel3.FRFCFS-WQF.channel3.rank0.bank5.powerCycles 375351965
i0.defaultMemory.channel3.FRFCFS-WQF.channel3.rank0.bank5.utilization 0.00537734
i0.defaultMemory.channel3.FRFCFS-WQF.channel3.rank0.bank5.reads 275608
i0.defaultMemory.channel3.FRFCFS-WQF.channel3.rank0.bank5.writes 228991
i0.defaultMemory.channel3.FRFCFS-WQF.channel3.rank0.bank5.activates 40023
i0.defaultMemory.channel3.FRFCFS-WQF.channel3.rank0.bank5.precharges 40022
i0.defaultMemory.channel3.FRFCFS-WQF.channel3.rank0.bank5.refreshes 0
i0.defaultMemory.channel3.FRFCFS-WQF.channel3.rank0.bank5.activeCycles 373413529
i0.defaultMemory.channel3.FRFCFS-WQF.channel3.rank0.bank5.standbyCycles 1938436
i0.defaultMemory.channel3.FRFCFS-WQF.channel3.rank0.bank5.fastExitActiveCycles 0
i0.defaultMemory.channel3.FRFCFS-WQF.channel3.rank0.bank5.fastExitPrechargeCycles 0
i0.defaultMemory.channel3.FRFCFS-WQF.channel3.rank0.bank5.slowExitPrechargeCycles 0
i0.defaultMemory.channel3.FRFCFS-WQF.channel3.rank0.bank5.actWaits 0
i0.defaultMemory.channel3.FRFCFS-WQF.channel3.rank0.bank5.actWaitTotal 0
i0.defaultMemory.channel3.FRFCFS-WQF.channel3.rank0.bank5.actWaitAverage -nan
i0.defaultMemory.channel3.FRFCFS-WQF.channel3.rank0.bank5.averageEndurance 0
i0.defaultMemory.channel3.FRFCFS-WQF.channel3.rank0.bank5.worstCaseEndurance 18446744073709551615
i0.defaultMemory.channel3.FRFCFS-WQF.channel3.rank0.bank6.decoder.migratedAccesses 0
i0.defaultMemory.channel3.FRFCFS-WQF.channel3.rank0.bank6.subarray0.subArrayEnergy 9.55559e+06nJ
i0.defaultMemory.channel3.FRFCFS-WQF.channel3.rank0.bank6.subarray0.activeEnergy 3272.44nJ
i0.defaultMemory.channel3.FRFCFS-WQF.channel3.rank0.bank6.subarray0.burstEnergy 386121nJ
i0.defaultMemory.channel3.FRFCFS-WQF.channel3.rank0.bank6.subarray0.writeEnergy 9.1662e+06nJ
i0.defaultMemory.channel3.FRFCFS-WQF.channel3.rank0.bank6.subarray0.refreshEnergy 0nJ
i0.defaultMemory.channel3.FRFCFS-WQF.channel3.rank0.bank6.subarray0.cancelledWrites 0
i0.defaultMemory.channel3.FRFCFS-WQF.channel3.rank0.bank6.subarray0.cancelledWriteTime 0
i0.defaultMemory.channel3.FRFCFS-WQF.channel3.rank0.bank6.subarray0.pausedWrites 0
i0.defaultMemory.channel3.FRFCFS-WQF.channel3.rank0.bank6.subarray0.averagePausesPerRequest 0
i0.defaultMemory.channel3.FRFCFS-WQF.channel3.rank0.bank6.subarray0.measuredPauses 228913
i0.defaultMemory.channel3.FRFCFS-WQF.channel3.rank0.bank6.subarray0.averagePausedRequestProgress 0
i0.defaultMemory.channel3.FRFCFS-WQF.channel3.rank0.bank6.subarray0.measuredProgresses 0
i0.defaultMemory.channel3.FRFCFS-WQF.channel3.rank0.bank6.subarray0.reads 275810
i0.defaultMemory.channel3.FRFCFS-WQF.channel3.rank0.bank6.subarray0.writes 228913
i0.defaultMemory.channel3.FRFCFS-WQF.channel3.rank0.bank6.subarray0.activates 40301
i0.defaultMemory.channel3.FRFCFS-WQF.channel3.rank0.bank6.subarray0.precharges 40300
i0.defaultMemory.channel3.FRFCFS-WQF.channel3.rank0.bank6.subarray0.refreshes 0
i0.defaultMemory.channel3.FRFCFS-WQF.channel3.rank0.bank6.subarray0.worstCaseEndurance 18446744073709551615
i0.defaultMemory.channel3.FRFCFS-WQF.channel3.rank0.bank6.subarray0.averageEndurance 0
i0.defaultMemory.channel3.FRFCFS-WQF.channel3.rank0.bank6.subarray0.actWaits 0
i0.defaultMemory.channel3.FRFCFS-WQF.channel3.rank0.bank6.subarray0.actWaitTotal 0
i0.defaultMemory.channel3.FRFCFS-WQF.channel3.rank0.bank6.subarray0.actWaitAverage -nan
i0.defaultMemory.channel3.FRFCFS-WQF.channel3.rank0.bank6.subarray0.worstCaseWrite 0
i0.defaultMemory.channel3.FRFCFS-WQF.channel3.rank0.bank6.subarray0.num00Writes 0
i0.defaultMemory.channel3.FRFCFS-WQF.channel3.rank0.bank6.subarray0.num01Writes 0
i0.defaultMemory.channel3.FRFCFS-WQF.channel3.rank0.bank6.subarray0.num10Writes 0
i0.defaultMemory.channel3.FRFCFS-WQF.channel3.rank0.bank6.subarray0.num11Writes 0
i0.defaultMemory.channel3.FRFCFS-WQF.channel3.rank0.bank6.subarray0.averageWriteTime 60
i0.defaultMemory.channel3.FRFCFS-WQF.channel3.rank0.bank6.subarray0.measuredWriteTimes 228913
i0.defaultMemory.channel3.FRFCFS-WQF.channel3.rank0.bank6.subarray0.mlcTimingHisto {}
i0.defaultMemory.channel3.FRFCFS-WQF.channel3.rank0.bank6.subarray0.cancelCountHisto {0: 228912}
i0.defaultMemory.channel3.FRFCFS-WQF.channel3.rank0.bank6.subarray0.wpPauseHisto {}
i0.defaultMemory.channel3.FRFCFS-WQF.channel3.rank0.bank6.subarray0.wpCancelHisto {}
i0.defaultMemory.channel3.FRFCFS-WQF.channel3.rank0.bank6.bankEnergy 9.55559e+06nJ
i0.defaultMemory.channel3.FRFCFS-WQF.channel3.rank0.bank6.activeEnergy 3272.44nJ
i0.defaultMemory.channel3.FRFCFS-WQF.channel3.rank0.bank6.burstEnergy 386121nJ
i0.defaultMemory.channel3.FRFCFS-WQF.channel3.rank0.bank6.refreshEnergy 0nJ
i0.defaultMemory.channel3.FRFCFS-WQF.channel3.rank0.bank6.bankPower 2.54577e+07W
i0.defaultMemory.channel3.FRFCFS-WQF.channel3.rank0.bank6.activePower 8718.33W
i0.defaultMemory.channel3.FRFCFS-WQF.channel3.rank0.bank6.burstPower 1.02869e+06W
i0.defaultMemory.channel3.FRFCFS-WQF.channel3.rank0.bank6.refreshPower 0W
i0.defaultMemory.channel3.FRFCFS-WQF.channel3.rank0.bank6.bandwidth 459.209MB/s
i0.defaultMemory.channel3.FRFCFS-WQF.channel3.rank0.bank6.dataCycles 2018892
i0.defaultMemory.channel3.FRFCFS-WQF.channel3.rank0.bank6.powerCycles 375351965
i0.defaultMemory.channel3.FRFCFS-WQF.channel3.rank0.bank6.utilization 0.00537866
i0.defaultMemory.channel3.FRFCFS-WQF.channel3.rank0.bank6.reads 275810
i0.defaultMemory.channel3.FRFCFS-WQF.channel3.rank0.bank6.writes 228913
i0.defaultMemory.channel3.FRFCFS-WQF.channel3.rank0.bank6.activates 40301
i0.defaultMemory.channel3.FRFCFS-WQF.channel3.rank0.bank6.precharges 40300
i0.defaultMemory.channel3.FRFCFS-WQF.channel3.rank0.bank6.refreshes 0
i0.defaultMemory.channel3.FRFCFS-WQF.channel3.rank0.bank6.activeCycles 373406712
i0.defaultMemory.channel3.FRFCFS-WQF.channel3.rank0.bank6.standbyCycles 1945253
i0.defaultMemory.channel3.FRFCFS-WQF.channel3.rank0.bank6.fastExitActiveCycles 0
i0.defaultMemory.channel3.FRFCFS-WQF.channel3.rank0.bank6.fastExitPrechargeCycles 0
i0.defaultMemory.channel3.FRFCFS-WQF.channel3.rank0.bank6.slowExitPrechargeCycles 0
i0.defaultMemory.channel3.FRFCFS-WQF.channel3.rank0.bank6.actWaits 0
i0.defaultMemory.channel3.FRFCFS-WQF.channel3.rank0.bank6.actWaitTotal 0
i0.defaultMemory.channel3.FRFCFS-WQF.channel3.rank0.bank6.actWaitAverage -nan
i0.defaultMemory.channel3.FRFCFS-WQF.channel3.rank0.bank6.averageEndurance 0
i0.defaultMemory.channel3.FRFCFS-WQF.channel3.rank0.bank6.worstCaseEndurance 18446744073709551615
i0.defaultMemory.channel3.FRFCFS-WQF.channel3.rank0.bank7.decoder.migratedAccesses 0
i0.defaultMemory.channel3.FRFCFS-WQF.channel3.rank0.bank7.subarray0.subArrayEnergy 9.54625e+06nJ
i0.defaultMemory.channel3.FRFCFS-WQF.channel3.rank0.bank7.subarray0.activeEnergy 3251.74nJ
i0.defaultMemory.channel3.FRFCFS-WQF.channel3.rank0.bank7.subarray0.burstEnergy 385746nJ
i0.defaultMemory.channel3.FRFCFS-WQF.channel3.rank0.bank7.subarray0.writeEnergy 9.15725e+06nJ
i0.defaultMemory.channel3.FRFCFS-WQF.channel3.rank0.bank7.subarray0.refreshEnergy 0nJ
i0.defaultMemory.channel3.FRFCFS-WQF.channel3.rank0.bank7.subarray0.cancelledWrites 0
i0.defaultMemory.channel3.FRFCFS-WQF.channel3.rank0.bank7.subarray0.cancelledWriteTime 0
i0.defaultMemory.channel3.FRFCFS-WQF.channel3.rank0.bank7.subarray0.pausedWrites 0
i0.defaultMemory.channel3.FRFCFS-WQF.channel3.rank0.bank7.subarray0.averagePausesPerRequest 0
i0.defaultMemory.channel3.FRFCFS-WQF.channel3.rank0.bank7.subarray0.measuredPauses 228692
i0.defaultMemory.channel3.FRFCFS-WQF.channel3.rank0.bank7.subarray0.averagePausedRequestProgress 0
i0.defaultMemory.channel3.FRFCFS-WQF.channel3.rank0.bank7.subarray0.measuredProgresses 0
i0.defaultMemory.channel3.FRFCFS-WQF.channel3.rank0.bank7.subarray0.reads 274561
i0.defaultMemory.channel3.FRFCFS-WQF.channel3.rank0.bank7.subarray0.writes 228692
i0.defaultMemory.channel3.FRFCFS-WQF.channel3.rank0.bank7.subarray0.activates 40046
i0.defaultMemory.channel3.FRFCFS-WQF.channel3.rank0.bank7.subarray0.precharges 40045
i0.defaultMemory.channel3.FRFCFS-WQF.channel3.rank0.bank7.subarray0.refreshes 0
i0.defaultMemory.channel3.FRFCFS-WQF.channel3.rank0.bank7.subarray0.worstCaseEndurance 18446744073709551615
i0.defaultMemory.channel3.FRFCFS-WQF.channel3.rank0.bank7.subarray0.averageEndurance 0
i0.defaultMemory.channel3.FRFCFS-WQF.channel3.rank0.bank7.subarray0.actWaits 0
i0.defaultMemory.channel3.FRFCFS-WQF.channel3.rank0.bank7.subarray0.actWaitTotal 0
i0.defaultMemory.channel3.FRFCFS-WQF.channel3.rank0.bank7.subarray0.actWaitAverage -nan
i0.defaultMemory.channel3.FRFCFS-WQF.channel3.rank0.bank7.subarray0.worstCaseWrite 0
i0.defaultMemory.channel3.FRFCFS-WQF.channel3.rank0.bank7.subarray0.num00Writes 0
i0.defaultMemory.channel3.FRFCFS-WQF.channel3.rank0.bank7.subarray0.num01Writes 0
i0.defaultMemory.channel3.FRFCFS-WQF.channel3.rank0.bank7.subarray0.num10Writes 0
i0.defaultMemory.channel3.FRFCFS-WQF.channel3.rank0.bank7.subarray0.num11Writes 0
i0.defaultMemory.channel3.FRFCFS-WQF.channel3.rank0.bank7.subarray0.averageWriteTime 60
i0.defaultMemory.channel3.FRFCFS-WQF.channel3.rank0.bank7.subarray0.measuredWriteTimes 228692
i0.defaultMemory.channel3.FRFCFS-WQF.channel3.rank0.bank7.subarray0.mlcTimingHisto {}
i0.defaultMemory.channel3.FRFCFS-WQF.channel3.rank0.bank7.subarray0.cancelCountHisto {0: 228691}
i0.defaultMemory.channel3.FRFCFS-WQF.channel3.rank0.bank7.subarray0.wpPauseHisto {}
i0.defaultMemory.channel3.FRFCFS-WQF.channel3.rank0.bank7.subarray0.wpCancelHisto {}
i0.defaultMemory.channel3.FRFCFS-WQF.channel3.rank0.bank7.bankEnergy 9.54625e+06nJ
i0.defaultMemory.channel3.FRFCFS-WQF.channel3.rank0.bank7.activeEnergy 3251.74nJ
i0.defaultMemory.channel3.FRFCFS-WQF.channel3.rank0.bank7.burstEnergy 385746nJ
i0.defaultMemory.channel3.FRFCFS-WQF.channel3.rank0.bank7.refreshEnergy 0nJ
i0.defaultMemory.channel3.FRFCFS-WQF.channel3.rank0.bank7.bankPower 2.54328e+07W
i0.defaultMemory.channel3.FRFCFS-WQF.channel3.rank0.bank7.activePower 8663.16W
i0.defaultMemory.channel3.FRFCFS-WQF.channel3.rank0.bank7.burstPower 1.02769e+06W
i0.defaultMemory.channel3.FRFCFS-WQF.channel3.rank0.bank7.refreshPower 0W
i0.defaultMemory.channel3.FRFCFS-WQF.channel3.rank0.bank7.bandwidth 457.871MB/s
i0.defaultMemory.channel3.FRFCFS-WQF.channel3.rank0.bank7.dataCycles 2013012
i0.defaultMemory.channel3.FRFCFS-WQF.channel3.rank0.bank7.powerCycles 375351965
i0.defaultMemory.channel3.FRFCFS-WQF.channel3.rank0.bank7.utilization 0.005363
i0.defaultMemory.channel3.FRFCFS-WQF.channel3.rank0.bank7.reads 274561
i0.defaultMemory.channel3.FRFCFS-WQF.channel3.rank0.bank7.writes 228692
i0.defaultMemory.channel3.FRFCFS-WQF.channel3.rank0.bank7.activates 40046
i0.defaultMemory.channel3.FRFCFS-WQF.channel3.rank0.bank7.precharges 40045
i0.defaultMemory.channel3.FRFCFS-WQF.channel3.rank0.bank7.refreshes 0
i0.defaultMemory.channel3.FRFCFS-WQF.channel3.rank0.bank7.activeCycles 373428177
i0.defaultMemory.channel3.FRFCFS-WQF.channel3.rank0.bank7.standbyCycles 1923788
i0.defaultMemory.channel3.FRFCFS-WQF.channel3.rank0.bank7.fastExitActiveCycles 0
i0.defaultMemory.channel3.FRFCFS-WQF.channel3.rank0.bank7.fastExitPrechargeCycles 0
i0.defaultMemory.channel3.FRFCFS-WQF.channel3.rank0.bank7.slowExitPrechargeCycles 0
i0.defaultMemory.channel3.FRFCFS-WQF.channel3.rank0.bank7.actWaits 0
i0.defaultMemory.channel3.FRFCFS-WQF.channel3.rank0.bank7.actWaitTotal 0
i0.defaultMemory.channel3.FRFCFS-WQF.channel3.rank0.bank7.actWaitAverage -nan
i0.defaultMemory.channel3.FRFCFS-WQF.channel3.rank0.bank7.averageEndurance 0
i0.defaultMemory.channel3.FRFCFS-WQF.channel3.rank0.bank7.worstCaseEndurance 18446744073709551615
i0.defaultMemory.channel3.FRFCFS-WQF.channel3.rank0.totalEnergy 1.13346e+08nJ
i0.defaultMemory.channel3.FRFCFS-WQF.channel3.rank0.backgroundEnergy 3.38155e+07nJ
i0.defaultMemory.channel3.FRFCFS-WQF.channel3.rank0.activateEnergy 26064.5nJ
i0.defaultMemory.channel3.FRFCFS-WQF.channel3.rank0.burstEnergy 3.08781e+06nJ
i0.defaultMemory.channel3.FRFCFS-WQF.channel3.rank0.refreshEnergy 0nJ
i0.defaultMemory.channel3.FRFCFS-WQF.channel3.rank0.totalPower 0.0656234W
i0.defaultMemory.channel3.FRFCFS-WQF.channel3.rank0.backgroundPower 0.06009W
i0.defaultMemory.channel3.FRFCFS-WQF.channel3.rank0.activatePower 4.63165e-05W
i0.defaultMemory.channel3.FRFCFS-WQF.channel3.rank0.burstPower 0.00548704W
i0.defaultMemory.channel3.FRFCFS-WQF.channel3.rank0.refreshPower 0W
i0.defaultMemory.channel3.FRFCFS-WQF.channel3.rank0.reads 2202507
i0.defaultMemory.channel3.FRFCFS-WQF.channel3.rank0.writes 1830624
i0.defaultMemory.channel3.FRFCFS-WQF.channel3.rank0.activeCycles 375351965
i0.defaultMemory.channel3.FRFCFS-WQF.channel3.rank0.standbyCycles 0
i0.defaultMemory.channel3.FRFCFS-WQF.channel3.rank0.fastExitActiveCycles 0
i0.defaultMemory.channel3.FRFCFS-WQF.channel3.rank0.fastExitPrechargeCycles 0
i0.defaultMemory.channel3.FRFCFS-WQF.channel3.rank0.slowExitCycles 0
i0.defaultMemory.channel3.FRFCFS-WQF.channel3.rank0.actWaits 49291
i0.defaultMemory.channel3.FRFCFS-WQF.channel3.rank0.actWaitTotal 129228
i0.defaultMemory.channel3.FRFCFS-WQF.channel3.rank0.actWaitAverage 2.62174
i0.defaultMemory.channel3.FRFCFS-WQF.channel3.rank0.rrdWaits 49291
i0.defaultMemory.channel3.FRFCFS-WQF.channel3.rank0.rrdWaitTotal 129228
i0.defaultMemory.channel3.FRFCFS-WQF.channel3.rank0.rrdWaitAverage 2.62174
i0.defaultMemory.channel3.FRFCFS-WQF.channel3.rank0.fawWaits 536
i0.defaultMemory.channel3.FRFCFS-WQF.channel3.rank0.fawWaitTotal 2282
i0.defaultMemory.channel3.FRFCFS-WQF.channel3.rank0.fawWaitAverage 4.25746
i0.defaultMemory.channel3.FRFCFS-WQF.mem_reads 2202507
i0.defaultMemory.channel3.FRFCFS-WQF.mem_writes 1830641
i0.defaultMemory.channel3.FRFCFS-WQF.rq_rb_hits 2045476
i0.defaultMemory.channel3.FRFCFS-WQF.rq_rb_miss 157031
i0.defaultMemory.channel3.FRFCFS-WQF.wq_rb_hits 1666664
i0.defaultMemory.channel3.FRFCFS-WQF.wq_rb_miss 163960
i0.defaultMemory.channel3.FRFCFS-WQF.total_drains 114413
i0.defaultMemory.channel3.FRFCFS-WQF.total_drain_writes 1830608
i0.defaultMemory.channel3.FRFCFS-WQF.average_writes_per_drain 16
i0.defaultMemory.channel3.FRFCFS-WQF.minimum_drain_writes 16
i0.defaultMemory.channel3.FRFCFS-WQF.maximum_drain_writes 16
i0.defaultMemory.channel3.FRFCFS-WQF.total_drain_cycles 59377805
i0.defaultMemory.channel3.FRFCFS-WQF.average_drain_cycles 518.978
i0.defaultMemory.channel3.FRFCFS-WQF.minimum_drain_cycles 67
i0.defaultMemory.channel3.FRFCFS-WQF.maximum_drain_cycles 1072
i0.defaultMemory.channel3.FRFCFS-WQF.total_non_drain_cycles 374507582
i0.defaultMemory.channel3.FRFCFS-WQF.average_drain_spacing 3273.3
i0.defaultMemory.channel3.FRFCFS-WQF.minimum_drain_spacing 372
i0.defaultMemory.channel3.FRFCFS-WQF.maximum_drain_spacing 382212
i0.defaultMemory.channel3.FRFCFS-WQF.total_read_cycles 315129777
i0.defaultMemory.channel3.FRFCFS-WQF.average_read_spacing 2754.32
i0.defaultMemory.channel3.FRFCFS-WQF.minimum_read_spacing 191
i0.defaultMemory.channel3.FRFCFS-WQF.maximum_read_spacing 382044
i0.defaultMemory.channel3.FRFCFS-WQF.total_readqueue_size 38
i0.defaultMemory.channel3.FRFCFS-WQF.average_predrain_readqueue_size 0.00033213
i0.defaultMemory.channel3.FRFCFS-WQF.minimum_predrain_readqueue_size 0
i0.defaultMemory.channel3.FRFCFS-WQF.maximum_predrain_readqueue_size 2
i0.defaultMemory.channel3.FRFCFS-WQF.total_reads_during_drain 85838
i0.defaultMemory.channel3.FRFCFS-WQF.average_reads_during_drain 0.750247
i0.defaultMemory.channel3.FRFCFS-WQF.minimum_reads_during_drain 0
i0.defaultMemory.channel3.FRFCFS-WQF.maximum_reads_during_drain 3
i0.defaultMemory.channel3.FRFCFS-WQF.starvation_precharges 256581
i0.defaultMemory.channel3.FRFCFS-WQF.averageLatency 72.1562
i0.defaultMemory.channel3.FRFCFS-WQF.averageQueueLatency 1915.99
i0.defaultMemory.channel3.FRFCFS-WQF.averageTotalLatency 1988.14
i0.defaultMemory.channel3.FRFCFS-WQF.measuredLatencies 4033131
i0.defaultMemory.channel3.FRFCFS-WQF.measuredQueueLatencies 4033131
i0.defaultMemory.channel3.FRFCFS-WQF.measuredTotalLatencies 4033131
i0.defaultMemory.channel3.FRFCFS-WQF.simulation_cycles 375351965
i0.defaultMemory.channel3.FRFCFS-WQF.wakeupCount 6725300
i0.defaultMemory.totalReadRequests 6889636
i0.defaultMemory.totalWriteRequests 6726272
i0.defaultMemory.successfulPrefetches 0
i0.defaultMemory.unsuccessfulPrefetches 0
]0;root@server2: /home/server2/stx-gem/gem5-11688root@server2:/home/server2/stx-gem/gem5-11688# build/X86/gem5.opt --stats-file=LRU_lbm.ttxt ./configs/example/se_benchmark_spec06.py --benchmark=lbm --mem-type=NVMainMemory --nnvmain-config=nvmain/Config/Hybrid_example.config --cpu-clock=2GHz --cpu-type=detailed --I 100000000 --caches --l1i_size=32kB --l1d_size=64kB --l2cache --l2_size=1MB[A[A[A[K
[K
[K
[K[A[A[A[C[C[C[C[C[C[C[C[C[C[C[C[C[C[C[C[C[C[C[C[C[C[C[C[C[C[C[C[C[C[C[C[C[C[C[C[C[C[C[C[C[C[C[C[C[C[Cexit

è„šæœ¬å®Œæˆï¼ŒäºŽ 2019å¹´07æœˆ16æ—¥ æ˜ŸæœŸäºŒ 20æ—¶10åˆ†30ç§’
