è„šæœ¬å¯åŠ¨äºŽ 2019å¹´07æœˆ14æ—¥ æ˜ŸæœŸæ—¥ 20æ—¶28åˆ†17ç§’
]0;root@server2: /home/server2/stx-gem/gem5-11688root@server2:/home/server2/stx-gem/gem5-11688# build/X86/gem5.opt --stats-file=L RU_gcc.txt ./configs/example/se_benchmark_spec06.py --benchmark=gcc --mem-type=N VMainMemory --nvmain-config=nvmain/Config/Hybrid_example.config --cpu-clock=2GHz  --cpu-type=detailed -I 100000000 --caches --l1i_size=32kB --l1d_size=64kB --l2c ache --l2_size=1MB[A[C[C[C[C[C[C[C[C[C[C[C[C[C[C[C[C[C[C[C[C[C[C[C[C[C[C[C[C[C[C[C[C[C[C[C[C[C[C[C[C[C[C[C[C[C[C[C[C[C[C[C[C[C[C[C[C[C[C[C[C[C[C[C[C[C[C[C[C[C[C[C[C[C[C[C[C[C[C[C[A[C[C[C[C[C[C[C[C[C[C[C[C[C[C[C[C[C[C[C[C[C[C[C[C[C[C[C[C[C[C[C[C[C[C[C[C[C[C[C[C[C[C[C[C[C[C[C[C[C[C[C[C[C[C[C[C[C[C[C[C[C[C[C[C[C[C[C[C[C[C[C[C[C[C[C[C[C[C[C


gem5 Simulator System.  http://gem5.org
gem5 is copyrighted software; use the --copyright option for details.

gem5 compiled Jul 13 2019 20:05:35
gem5 started Jul 14 2019 20:28:34
gem5 executing on server2, pid 25689
command line: build/X86/gem5.opt --stats-file=LRU_gcc.txt ./configs/example/se_benchmark_spec06.py --benchmark=gcc --mem-type=NVMainMemory --nvmain-config=nvmain/Config/Hybrid_example.config --cpu-clock=2GHz --cpu-type=detailed -I 100000000 --caches --l1i_size=32kB --l1d_size=64kB --l2cache --l2_size=1MB

Selected SPEC_CPU2006 benchmark
--> gcc
['/home/server2/stx-gem/spec06/spec06-x86/benchspec/CPU2006/403.gcc/exe/gcc_base.amd64-m64-gcc42-nn', '/home/server2/stx-gem/spec06/spec06-x86/benchspec/CPU2006/403.gcc/data/test/input/cccp.i', '-o', '/home/server2/stx-gem/spec06/spec06-x86/benchspec/CPU2006/403.gcc/data/test/output/cccp.s']
Global frequency set at 1000000000000 ticks per second
NVMainControl: Reading NVMain config file: nvmain/Config/Hybrid_example.config.
Config: Warning: Key BusWidth is not set. Using '-1' as the default. Please configure this value if this is wrong.
Config: Warning: Key tBURST is not set. Using '-1' as the default. Please configure this value if this is wrong.
Config: Warning: Key RATE is not set. Using '-1' as the default. Please configure this value if this is wrong.
0: system.remote_gdb.listener: listening for remote gdb #0 on port 7001
Creating hook CoinMigrator
Config: Warning: Key MigrationBufferReadLatency is not set. Using '4' as the default. Please configure this value if this is wrong.
NVMain: GlobalEventQueue: Added a memory subsystem running at 667MHz. My frequency is 2000MHz.
Config: Warning: Key DeviceWidth is not set. Using '8' as the default. Please configure this value if this is wrong.
Config: Warning: Key EIDD0 is not set. Using '85' as the default. Please configure this value if this is wrong.
Config: Warning: Key EIDD1 is not set. Using '54' as the default. Please configure this value if this is wrong.
Config: Warning: Key EIDD2P0 is not set. Using '30' as the default. Please configure this value if this is wrong.
Config: Warning: Key EIDD2P1 is not set. Using '30' as the default. Please configure this value if this is wrong.
Config: Warning: Key EIDD2N is not set. Using '37' as the default. Please configure this value if this is wrong.
Config: Warning: Key EIDD3P is not set. Using '35' as the default. Please configure this value if this is wrong.
Config: Warning: Key EIDD3N is not set. Using '40' as the default. Please configure this value if this is wrong.
Config: Warning: Key EIDD4R is not set. Using '160' as the default. Please configure this value if this is wrong.
Config: Warning: Key EIDD4W is not set. Using '165' as the default. Please configure this value if this is wrong.
Config: Warning: Key EIDD5B is not set. Using '200' as the default. Please configure this value if this is wrong.
Config: Warning: Key EIDD6 is not set. Using '12' as the default. Please configure this value if this is wrong.
Config: Warning: Key Eopenrd is not set. Using '1.08108' as the default. Please configure this value if this is wrong.
Config: Warning: Key Erd is not set. Using '3.4054' as the default. Please configure this value if this is wrong.
Config: Warning: Key Eref is not set. Using '38.5585' as the default. Please configure this value if this is wrong.
Config: Warning: Key Ewr is not set. Using '1.02375' as the default. Please configure this value if this is wrong.
Config: Warning: Key Ewrpb is not set. Using '0.00199951' as the default. Please configure this value if this is wrong.
Config: Warning: Key Eactstdby is not set. Using '0.09009' as the default. Please configure this value if this is wrong.
Config: Warning: Key Eprestdby is not set. Using '0.083333' as the default. Please configure this value if this is wrong.
Config: Warning: Key Epda is not set. Using '0' as the default. Please configure this value if this is wrong.
Config: Warning: Key Epdpf is not set. Using '0' as the default. Please configure this value if this is wrong.
Config: Warning: Key Epdps is not set. Using '0' as the default. Please configure this value if this is wrong.
Config: Warning: Key Voltage is not set. Using '1.5' as the default. Please configure this value if this is wrong.
Config: Warning: Key Rtt_nom is not set. Using '30' as the default. Please configure this value if this is wrong.
Config: Warning: Key Rtt_wr is not set. Using '60' as the default. Please configure this value if this is wrong.
Config: Warning: Key Rtt_cont is not set. Using '75' as the default. Please configure this value if this is wrong.
Config: Warning: Key VDDQ is not set. Using '1.5' as the default. Please configure this value if this is wrong.
Config: Warning: Key VSSQ is not set. Using '0' as the default. Please configure this value if this is wrong.
Config: Warning: Key RanksPerDIMM is not set. Using '1' as the default. Please configure this value if this is wrong.
Config: Warning: Key EnduranceModel is not set. Using 'NullModel' as the default. Please configure this value if this is wrong.
Config: Warning: Key DataEncoder is not set. Using 'default' as the default. Please configure this value if this is wrong.
Config: Warning: Key EnergyModel is not set. Using 'current' as the default. Please configure this value if this is wrong.
Config: Warning: Key UseLowPower is not set. Using 'true' as the default. Please configure this value if this is wrong.
Config: Warning: Key PowerDownMode is not set. Using 'FASTEXIT' as the default. Please configure this value if this is wrong.
Config: Warning: Key InitPD is not set. Using 'false' as the default. Please configure this value if this is wrong.
Config: Warning: Key PrintGraphs is not set. Using 'false' as the default. Please configure this value if this is wrong.
Config: Warning: Key PrintAllDevices is not set. Using 'false' as the default. Please configure this value if this is wrong.
Config: Warning: Key PrintConfig is not set. Using 'false' as the default. Please configure this value if this is wrong.
Config: Warning: Key RefreshRows is not set. Using '4' as the default. Please configure this value if this is wrong.
Config: Warning: Key UseRefresh is not set. Using 'true' as the default. Please configure this value if this is wrong.
Config: Warning: Key StaggerRefresh is not set. Using 'false' as the default. Please configure this value if this is wrong.
Config: Warning: Key UsePrecharge is not set. Using 'true' as the default. Please configure this value if this is wrong.
Config: Warning: Key OffChipLatency is not set. Using '10' as the default. Please configure this value if this is wrong.
Config: Warning: Key PeriodicStatsInterval is not set. Using '0' as the default. Please configure this value if this is wrong.
Config: Warning: Key RAW is not set. Using '4' as the default. Please configure this value if this is wrong.
Config: Warning: Key MATHeight is not set. Using '65536' as the default. Please configure this value if this is wrong.
Config: Warning: Key RBSize is not set. Using '32' as the default. Please configure this value if this is wrong.
Config: Warning: Key tRDPDEN is not set. Using '24' as the default. Please configure this value if this is wrong.
Config: Warning: Key tWRPDEN is not set. Using '19' as the default. Please configure this value if this is wrong.
Config: Warning: Key tWRAPDEN is not set. Using '22' as the default. Please configure this value if this is wrong.
Config: Warning: Key ClosePage is not set. Using '1' as the default. Please configure this value if this is wrong.
Config: Warning: Key ScheduleScheme is not set. Using '1' as the default. Please configure this value if this is wrong.
Config: Warning: Key HighWaterMark is not set. Using '32' as the default. Please configure this value if this is wrong.
Config: Warning: Key LowWaterMark is not set. Using '16' as the default. Please configure this value if this is wrong.
Config: Warning: Key BanksPerRefresh is not set. Using '8' as the default. Please configure this value if this is wrong.
Config: Warning: Key DelayedRefreshThreshold is not set. Using '1' as the default. Please configure this value if this is wrong.
Config: Warning: Key MemoryPrefetcher is not set. Using 'none' as the default. Please configure this value if this is wrong.
Config: Warning: Key PrefetchBufferSize is not set. Using '32' as the default. Please configure this value if this is wrong.
Config: Warning: Key MLCLevels is not set. Using '1' as the default. Please configure this value if this is wrong.
Config: Warning: Key WPVariance is not set. Using '1' as the default. Please configure this value if this is wrong.
Config: Warning: Key UniformWrites is not set. Using 'true' as the default. Please configure this value if this is wrong.
Config: Warning: Key WriteAllBits is not set. Using 'true' as the default. Please configure this value if this is wrong.
Config: Warning: Key Ereset is not set. Using '0.054331' as the default. Please configure this value if this is wrong.
Config: Warning: Key Eset is not set. Using '0.101581' as the default. Please configure this value if this is wrong.
Config: Warning: Key nWP00 is not set. Using '0' as the default. Please configure this value if this is wrong.
Config: Warning: Key nWP01 is not set. Using '7' as the default. Please configure this value if this is wrong.
Config: Warning: Key nWP10 is not set. Using '5' as the default. Please configure this value if this is wrong.
Config: Warning: Key nWP11 is not set. Using '1' as the default. Please configure this value if this is wrong.
Config: Warning: Key WPMaxVariance is not set. Using '2' as the default. Please configure this value if this is wrong.
Config: Warning: Key DeadlockTimer is not set. Using '10000000' as the default. Please configure this value if this is wrong.
Config: Warning: Key EnableDebug is not set. Using 'false' as the default. Please configure this value if this is wrong.
Config: Warning: Key WritePausing is not set. Using 'false' as the default. Please configure this value if this is wrong.
Config: Warning: Key PauseThreshold is not set. Using '0.4' as the default. Please configure this value if this is wrong.
Config: Warning: Key MaxCancellations is not set. Using '4' as the default. Please configure this value if this is wrong.
NVMain: the address mapping order is 
	Sub-Array 6
	Row 5
	Column 1
	Bank 3
	Rank 4
	Channel 2
Reading channel config file: nvmain/Config/Hybrid_DRAM_channel.config
Created a First Ready First Come First Serve memory controller!
Config: Warning: Key Rtt_nom is not set. Using '30' as the default. Please configure this value if this is wrong.
Config: Warning: Key Rtt_wr is not set. Using '60' as the default. Please configure this value if this is wrong.
Config: Warning: Key Rtt_cont is not set. Using '75' as the default. Please configure this value if this is wrong.
Config: Warning: Key VDDQ is not set. Using '1.5' as the default. Please configure this value if this is wrong.
Config: Warning: Key VSSQ is not set. Using '0' as the default. Please configure this value if this is wrong.
Config: Warning: Key RanksPerDIMM is not set. Using '1' as the default. Please configure this value if this is wrong.
Config: Warning: Key DataEncoder is not set. Using 'default' as the default. Please configure this value if this is wrong.
Config: Warning: Key PrintAllDevices is not set. Using 'false' as the default. Please configure this value if this is wrong.
Config: Warning: Key PrintConfig is not set. Using 'false' as the default. Please configure this value if this is wrong.
Config: Warning: Key StaggerRefresh is not set. Using 'false' as the default. Please configure this value if this is wrong.
Config: Warning: Key UsePrecharge is not set. Using 'true' as the default. Please configure this value if this is wrong.
Config: Warning: Key OffChipLatency is not set. Using '10' as the default. Please configure this value if this is wrong.
Config: Warning: Key RBSize is not set. Using '32' as the default. Please configure this value if this is wrong.
Config: Warning: Key MemoryPrefetcher is not set. Using 'none' as the default. Please configure this value if this is wrong.
Config: Warning: Key PrefetchBufferSize is not set. Using '32' as the default. Please configure this value if this is wrong.
Config: Warning: Key MLCLevels is not set. Using '1' as the default. Please configure this value if this is wrong.
Config: Warning: Key WPVariance is not set. Using '1' as the default. Please configure this value if this is wrong.
Config: Warning: Key UniformWrites is not set. Using 'true' as the default. Please configure this value if this is wrong.
Config: Warning: Key WriteAllBits is not set. Using 'true' as the default. Please configure this value if this is wrong.
Config: Warning: Key Ereset is not set. Using '0.054331' as the default. Please configure this value if this is wrong.
Config: Warning: Key Eset is not set. Using '0.101581' as the default. Please configure this value if this is wrong.
Config: Warning: Key nWP00 is not set. Using '0' as the default. Please configure this value if this is wrong.
Config: Warning: Key nWP01 is not set. Using '7' as the default. Please configure this value if this is wrong.
Config: Warning: Key nWP10 is not set. Using '5' as the default. Please configure this value if this is wrong.
Config: Warning: Key nWP11 is not set. Using '1' as the default. Please configure this value if this is wrong.
Config: Warning: Key WPMaxVariance is not set. Using '2' as the default. Please configure this value if this is wrong.
Config: Warning: Key DeadlockTimer is not set. Using '10000000' as the default. Please configure this value if this is wrong.
Config: Warning: Key EnableDebug is not set. Using 'false' as the default. Please configure this value if this is wrong.
Config: Warning: Key WritePausing is not set. Using 'false' as the default. Please configure this value if this is wrong.
Config: Warning: Key PauseThreshold is not set. Using '0.4' as the default. Please configure this value if this is wrong.
Config: Warning: Key MaxCancellations is not set. Using '4' as the default. Please configure this value if this is wrong.
Config: Warning: Key RankType is not set. Using '' as the default. Please configure this value if this is wrong.
Creating 8 banks in all 8 devices.
Config: Warning: Key BankType is not set. Using '' as the default. Please configure this value if this is wrong.
NVMain: the address mapping order is 
	Sub-Array 6
	Row 5
	Column 1
	Bank 3
	Rank 4
	Channel 2
defaultMemory.channel0.FRFCFS capacity is 1024 MB.
Creating 8 command queues.
Reading channel config file: nvmain/Config/Hybrid_NVM_channel.config
Created a First Ready First Come First Serve memory         controller with write queue!
Config: Warning: Key EIDD0 is not set. Using '85' as the default. Please configure this value if this is wrong.
Config: Warning: Key EIDD1 is not set. Using '54' as the default. Please configure this value if this is wrong.
Config: Warning: Key EIDD2P0 is not set. Using '30' as the default. Please configure this value if this is wrong.
Config: Warning: Key EIDD2P1 is not set. Using '30' as the default. Please configure this value if this is wrong.
Config: Warning: Key EIDD2N is not set. Using '37' as the default. Please configure this value if this is wrong.
Config: Warning: Key EIDD3P is not set. Using '35' as the default. Please configure this value if this is wrong.
Config: Warning: Key EIDD3N is not set. Using '40' as the default. Please configure this value if this is wrong.
Config: Warning: Key EIDD4R is not set. Using '160' as the default. Please configure this value if this is wrong.
Config: Warning: Key EIDD4W is not set. Using '165' as the default. Please configure this value if this is wrong.
Config: Warning: Key EIDD5B is not set. Using '200' as the default. Please configure this value if this is wrong.
Config: Warning: Key EIDD6 is not set. Using '12' as the default. Please configure this value if this is wrong.
Config: Warning: Key Eactstdby is not set. Using '0.09009' as the default. Please configure this value if this is wrong.
Config: Warning: Key Eprestdby is not set. Using '0.083333' as the default. Please configure this value if this is wrong.
Config: Warning: Key Rtt_nom is not set. Using '30' as the default. Please configure this value if this is wrong.
Config: Warning: Key Rtt_wr is not set. Using '60' as the default. Please configure this value if this is wrong.
Config: Warning: Key Rtt_cont is not set. Using '75' as the default. Please configure this value if this is wrong.
Config: Warning: Key VDDQ is not set. Using '1.5' as the default. Please configure this value if this is wrong.
Config: Warning: Key VSSQ is not set. Using '0' as the default. Please configure this value if this is wrong.
Config: Warning: Key RanksPerDIMM is not set. Using '1' as the default. Please configure this value if this is wrong.
Config: Warning: Key DataEncoder is not set. Using 'default' as the default. Please configure this value if this is wrong.
Config: Warning: Key UseLowPower is not set. Using 'true' as the default. Please configure this value if this is wrong.
Config: Warning: Key PowerDownMode is not set. Using 'FASTEXIT' as the default. Please configure this value if this is wrong.
Config: Warning: Key PrintAllDevices is not set. Using 'false' as the default. Please configure this value if this is wrong.
Config: Warning: Key PrintConfig is not set. Using 'false' as the default. Please configure this value if this is wrong.
Config: Warning: Key StaggerRefresh is not set. Using 'false' as the default. Please configure this value if this is wrong.
Config: Warning: Key UsePrecharge is not set. Using 'true' as the default. Please configure this value if this is wrong.
Config: Warning: Key OffChipLatency is not set. Using '10' as the default. Please configure this value if this is wrong.
Config: Warning: Key RBSize is not set. Using '32' as the default. Please configure this value if this is wrong.
Config: Warning: Key MemoryPrefetcher is not set. Using 'none' as the default. Please configure this value if this is wrong.
Config: Warning: Key PrefetchBufferSize is not set. Using '32' as the default. Please configure this value if this is wrong.
Config: Warning: Key MLCLevels is not set. Using '1' as the default. Please configure this value if this is wrong.
Config: Warning: Key WPVariance is not set. Using '1' as the default. Please configure this value if this is wrong.
Config: Warning: Key UniformWrites is not set. Using 'true' as the default. Please configure this value if this is wrong.
Config: Warning: Key WriteAllBits is not set. Using 'true' as the default. Please configure this value if this is wrong.
Config: Warning: Key Ereset is not set. Using '0.054331' as the default. Please configure this value if this is wrong.
Config: Warning: Key Eset is not set. Using '0.101581' as the default. Please configure this value if this is wrong.
Config: Warning: Key nWP00 is not set. Using '0' as the default. Please configure this value if this is wrong.
Config: Warning: Key nWP01 is not set. Using '7' as the default. Please configure this value if this is wrong.
Config: Warning: Key nWP10 is not set. Using '5' as the default. Please configure this value if this is wrong.
Config: Warning: Key nWP11 is not set. Using '1' as the default. Please configure this value if this is wrong.
Config: Warning: Key WPMaxVariance is not set. Using '2' as the default. Please configure this value if this is wrong.
Config: Warning: Key DeadlockTimer is not set. Using '10000000' as the default. Please configure this value if this is wrong.
Config: Warning: Key EnableDebug is not set. Using 'false' as the default. Please configure this value if this is wrong.
Config: Warning: Key WritePausing is not set. Using 'false' as the default. Please configure this value if this is wrong.
Config: Warning: Key PauseThreshold is not set. Using '0.4' as the default. Please configure this value if this is wrong.
Config: Warning: Key MaxCancellations is not set. Using '4' as the default. Please configure this value if this is wrong.
Config: Warning: Key RankType is not set. Using '' as the default. Please configure this value if this is wrong.
Creating 8 banks in all 8 devices.
Config: Warning: Key BankType is not set. Using '' as the default. Please configure this value if this is wrong.
NVMain: the address mapping order is 
	Sub-Array 6
	Row 5
	Column 1
	Bank 3
	Rank 4
	Channel 2
defaultMemory.channel1.FRFCFS-WQF capacity is 1024 MB.
Creating 8 command queues.
Reading channel config file: nvmain/Config/Hybrid_NVM_channel.config
Created a First Ready First Come First Serve memory         controller with write queue!
Config: Warning: Key EIDD0 is not set. Using '85' as the default. Please configure this value if this is wrong.
Config: Warning: Key EIDD1 is not set. Using '54' as the default. Please configure this value if this is wrong.
Config: Warning: Key EIDD2P0 is not set. Using '30' as the default. Please configure this value if this is wrong.
Config: Warning: Key EIDD2P1 is not set. Using '30' as the default. Please configure this value if this is wrong.
Config: Warning: Key EIDD2N is not set. Using '37' as the default. Please configure this value if this is wrong.
Config: Warning: Key EIDD3P is not set. Using '35' as the default. Please configure this value if this is wrong.
Config: Warning: Key EIDD3N is not set. Using '40' as the default. Please configure this value if this is wrong.
Config: Warning: Key EIDD4R is not set. Using '160' as the default. Please configure this value if this is wrong.
Config: Warning: Key EIDD4W is not set. Using '165' as the default. Please configure this value if this is wrong.
Config: Warning: Key EIDD5B is not set. Using '200' as the default. Please configure this value if this is wrong.
Config: Warning: Key EIDD6 is not set. Using '12' as the default. Please configure this value if this is wrong.
Config: Warning: Key Eactstdby is not set. Using '0.09009' as the default. Please configure this value if this is wrong.
Config: Warning: Key Eprestdby is not set. Using '0.083333' as the default. Please configure this value if this is wrong.
Config: Warning: Key Rtt_nom is not set. Using '30' as the default. Please configure this value if this is wrong.
Config: Warning: Key Rtt_wr is not set. Using '60' as the default. Please configure this value if this is wrong.
Config: Warning: Key Rtt_cont is not set. Using '75' as the default. Please configure this value if this is wrong.
Config: Warning: Key VDDQ is not set. Using '1.5' as the default. Please configure this value if this is wrong.
Config: Warning: Key VSSQ is not set. Using '0' as the default. Please configure this value if this is wrong.
Config: Warning: Key RanksPerDIMM is not set. Using '1' as the default. Please configure this value if this is wrong.
Config: Warning: Key DataEncoder is not set. Using 'default' as the default. Please configure this value if this is wrong.
Config: Warning: Key UseLowPower is not set. Using 'true' as the default. Please configure this value if this is wrong.
Config: Warning: Key PowerDownMode is not set. Using 'FASTEXIT' as the default. Please configure this value if this is wrong.
Config: Warning: Key PrintAllDevices is not set. Using 'false' as the default. Please configure this value if this is wrong.
Config: Warning: Key PrintConfig is not set. Using 'false' as the default. Please configure this value if this is wrong.
Config: Warning: Key StaggerRefresh is not set. Using 'false' as the default. Please configure this value if this is wrong.
Config: Warning: Key UsePrecharge is not set. Using 'true' as the default. Please configure this value if this is wrong.
Config: Warning: Key OffChipLatency is not set. Using '10' as the default. Please configure this value if this is wrong.
Config: Warning: Key RBSize is not set. Using '32' as the default. Please configure this value if this is wrong.
Config: Warning: Key MemoryPrefetcher is not set. Using 'none' as the default. Please configure this value if this is wrong.
Config: Warning: Key PrefetchBufferSize is not set. Using '32' as the default. Please configure this value if this is wrong.
Config: Warning: Key MLCLevels is not set. Using '1' as the default. Please configure this value if this is wrong.
Config: Warning: Key WPVariance is not set. Using '1' as the default. Please configure this value if this is wrong.
Config: Warning: Key UniformWrites is not set. Using 'true' as the default. Please configure this value if this is wrong.
Config: Warning: Key WriteAllBits is not set. Using 'true' as the default. Please configure this value if this is wrong.
Config: Warning: Key Ereset is not set. Using '0.054331' as the default. Please configure this value if this is wrong.
Config: Warning: Key Eset is not set. Using '0.101581' as the default. Please configure this value if this is wrong.
Config: Warning: Key nWP00 is not set. Using '0' as the default. Please configure this value if this is wrong.
Config: Warning: Key nWP01 is not set. Using '7' as the default. Please configure this value if this is wrong.
Config: Warning: Key nWP10 is not set. Using '5' as the default. Please configure this value if this is wrong.
Config: Warning: Key nWP11 is not set. Using '1' as the default. Please configure this value if this is wrong.
Config: Warning: Key WPMaxVariance is not set. Using '2' as the default. Please configure this value if this is wrong.
Config: Warning: Key DeadlockTimer is not set. Using '10000000' as the default. Please configure this value if this is wrong.
Config: Warning: Key EnableDebug is not set. Using 'false' as the default. Please configure this value if this is wrong.
Config: Warning: Key WritePausing is not set. Using 'false' as the default. Please configure this value if this is wrong.
Config: Warning: Key PauseThreshold is not set. Using '0.4' as the default. Please configure this value if this is wrong.
Config: Warning: Key MaxCancellations is not set. Using '4' as the default. Please configure this value if this is wrong.
Config: Warning: Key RankType is not set. Using '' as the default. Please configure this value if this is wrong.
Creating 8 banks in all 8 devices.
Config: Warning: Key BankType is not set. Using '' as the default. Please configure this value if this is wrong.
NVMain: the address mapping order is 
	Sub-Array 6
	Row 5
	Column 1
	Bank 3
	Rank 4
	Channel 2
defaultMemory.channel2.FRFCFS-WQF capacity is 1024 MB.
Creating 8 command queues.
Reading channel config file: nvmain/Config/Hybrid_NVM_channel.config
Created a First Ready First Come First Serve memory         controller with write queue!
Config: Warning: Key EIDD0 is not set. Using '85' as the default. Please configure this value if this is wrong.
Config: Warning: Key EIDD1 is not set. Using '54' as the default. Please configure this value if this is wrong.
Config: Warning: Key EIDD2P0 is not set. Using '30' as the default. Please configure this value if this is wrong.
Config: Warning: Key EIDD2P1 is not set. Using '30' as the default. Please configure this value if this is wrong.
Config: Warning: Key EIDD2N is not set. Using '37' as the default. Please configure this value if this is wrong.
Config: Warning: Key EIDD3P is not set. Using '35' as the default. Please configure this value if this is wrong.
Config: Warning: Key EIDD3N is not set. Using '40' as the default. Please configure this value if this is wrong.
Config: Warning: Key EIDD4R is not set. Using '160' as the default. Please configure this value if this is wrong.
Config: Warning: Key EIDD4W is not set. Using '165' as the default. Please configure this value if this is wrong.
Config: Warning: Key EIDD5B is not set. Using '200' as the default. Please configure this value if this is wrong.
Config: Warning: Key EIDD6 is not set. Using '12' as the default. Please configure this value if this is wrong.
Config: Warning: Key Eactstdby is not set. Using '0.09009' as the default. Please configure this value if this is wrong.
Config: Warning: Key Eprestdby is not set. Using '0.083333' as the default. Please configure this value if this is wrong.
Config: Warning: Key Rtt_nom is not set. Using '30' as the default. Please configure this value if this is wrong.
Config: Warning: Key Rtt_wr is not set. Using '60' as the default. Please configure this value if this is wrong.
Config: Warning: Key Rtt_cont is not set. Using '75' as the default. Please configure this value if this is wrong.
Config: Warning: Key VDDQ is not set. Using '1.5' as the default. Please configure this value if this is wrong.
Config: Warning: Key VSSQ is not set. Using '0' as the default. Please configure this value if this is wrong.
Config: Warning: Key RanksPerDIMM is not set. Using '1' as the default. Please configure this value if this is wrong.
Config: Warning: Key DataEncoder is not set. Using 'default' as the default. Please configure this value if this is wrong.
Config: Warning: Key UseLowPower is not set. Using 'true' as the default. Please configure this value if this is wrong.
Config: Warning: Key PowerDownMode is not set. Using 'FASTEXIT' as the default. Please configure this value if this is wrong.
Config: Warning: Key PrintAllDevices is not set. Using 'false' as the default. Please configure this value if this is wrong.
Config: Warning: Key PrintConfig is not set. Using 'false' as the default. Please configure this value if this is wrong.
Config: Warning: Key StaggerRefresh is not set. Using 'false' as the default. Please configure this value if this is wrong.
Config: Warning: Key UsePrecharge is not set. Using 'true' as the default. Please configure this value if this is wrong.
Config: Warning: Key OffChipLatency is not set. Using '10' as the default. Please configure this value if this is wrong.
Config: Warning: Key RBSize is not set. Using '32' as the default. Please configure this value if this is wrong.
Config: Warning: Key MemoryPrefetcher is not set. Using 'none' as the default. Please configure this value if this is wrong.
Config: Warning: Key PrefetchBufferSize is not set. Using '32' as the default. Please configure this value if this is wrong.
Config: Warning: Key MLCLevels is not set. Using '1' as the default. Please configure this value if this is wrong.
Config: Warning: Key WPVariance is not set. Using '1' as the default. Please configure this value if this is wrong.
Config: Warning: Key UniformWrites is not set. Using 'true' as the default. Please configure this value if this is wrong.
Config: Warning: Key WriteAllBits is not set. Using 'true' as the default. Please configure this value if this is wrong.
Config: Warning: Key Ereset is not set. Using '0.054331' as the default. Please configure this value if this is wrong.
Config: Warning: Key Eset is not set. Using '0.101581' as the default. Please configure this value if this is wrong.
Config: Warning: Key nWP00 is not set. Using '0' as the default. Please configure this value if this is wrong.
Config: Warning: Key nWP01 is not set. Using '7' as the default. Please configure this value if this is wrong.
Config: Warning: Key nWP10 is not set. Using '5' as the default. Please configure this value if this is wrong.
Config: Warning: Key nWP11 is not set. Using '1' as the default. Please configure this value if this is wrong.
Config: Warning: Key WPMaxVariance is not set. Using '2' as the default. Please configure this value if this is wrong.
Config: Warning: Key DeadlockTimer is not set. Using '10000000' as the default. Please configure this value if this is wrong.
Config: Warning: Key EnableDebug is not set. Using 'false' as the default. Please configure this value if this is wrong.
Config: Warning: Key WritePausing is not set. Using 'false' as the default. Please configure this value if this is wrong.
Config: Warning: Key PauseThreshold is not set. Using '0.4' as the default. Please configure this value if this is wrong.
Config: Warning: Key MaxCancellations is not set. Using '4' as the default. Please configure this value if this is wrong.
Config: Warning: Key RankType is not set. Using '' as the default. Please configure this value if this is wrong.
Creating 8 banks in all 8 devices.
Config: Warning: Key BankType is not set. Using '' as the default. Please configure this value if this is wrong.
NVMain: the address mapping order is 
	Sub-Array 6
	Row 5
	Column 1
	Bank 3
	Rank 4
	Channel 2
defaultMemory.channel3.FRFCFS-WQF capacity is 1024 MB.
Creating 8 command queues.
warn: ClockedObject: More than one power state change request encountered within the same simulation tick
**** REAL SIMULATION ****
info: Entering event queue @ 0.  Starting simulation...
warn: x86 cpuid family 0x0000: unimplemented function 7
warn: readlink() called on '/proc/self/exe' may yield unexpected results in various settings.
      Returning '/home/server2/stx-gem/spec06/spec06-x86/benchspec/CPU2006/403.gcc/exe/gcc_base.amd64-m64-gcc42-nn'
info: Increasing stack size by one page.
warn: ignoring syscall access(8035553, ...)
warn: ignoring syscall rt_sigaction(8, ...)
      (further warnings will be suppressed)
info: Increasing stack size by one page.
info: Increasing stack size by one page.
info: Increasing stack size by one page.
info: Increasing stack size by one page.
info: Increasing stack size by one page.
info: Increasing stack size by one page.
info: Increasing stack size by one page.
info: Increasing stack size by one page.
info: Increasing stack size by one page.
info: Increasing stack size by one page.
info: Increasing stack size by one page.
info: Increasing stack size by one page.
info: Increasing stack size by one page.
info: Increasing stack size by one page.
info: Increasing stack size by one page.
info: Increasing stack size by one page.
info: Increasing stack size by one page.
info: Increasing stack size by one page.
info: Increasing stack size by one page.
info: Increasing stack size by one page.
info: Increasing stack size by one page.
info: Increasing stack size by one page.
info: Increasing stack size by one page.
info: Increasing stack size by one page.
info: Increasing stack size by one page.
info: Increasing stack size by one page.
info: Increasing stack size by one page.
info: Increasing stack size by one page.
info: Increasing stack size by one page.
info: Increasing stack size by one page.
info: Increasing stack size by one page.
info: Increasing stack size by one page.
info: Increasing stack size by one page.
info: Increasing stack size by one page.
info: Increasing stack size by one page.
info: Increasing stack size by one page.
info: Increasing stack size by one page.
info: Increasing stack size by one page.
info: Increasing stack size by one page.
info: Increasing stack size by one page.
info: Increasing stack size by one page.
info: Increasing stack size by one page.
info: Increasing stack size by one page.
info: Increasing stack size by one page.
info: Increasing stack size by one page.
info: Increasing stack size by one page.
info: Increasing stack size by one page.
info: Increasing stack size by one page.
info: Increasing stack size by one page.
info: Increasing stack size by one page.
info: Increasing stack size by one page.
info: Increasing stack size by one page.
info: Increasing stack size by one page.
info: Increasing stack size by one page.
info: Increasing stack size by one page.
info: Increasing stack size by one page.
info: Increasing stack size by one page.
info: Increasing stack size by one page.
info: Increasing stack size by one page.
info: Increasing stack size by one page.
info: Increasing stack size by one page.
info: Increasing stack size by one page.
info: Increasing stack size by one page.
info: Increasing stack size by one page.
info: Increasing stack size by one page.
info: Increasing stack size by one page.
info: Increasing stack size by one page.
info: Increasing stack size by one page.
info: Increasing stack size by one page.
info: Increasing stack size by one page.
info: Increasing stack size by one page.
info: Increasing stack size by one page.
info: Increasing stack size by one page.
info: Increasing stack size by one page.
info: Increasing stack size by one page.
info: Increasing stack size by one page.
info: Increasing stack size by one page.
info: Increasing stack size by one page.
info: Increasing stack size by one page.
info: Increasing stack size by one page.
info: Increasing stack size by one page.
info: Increasing stack size by one page.
info: Increasing stack size by one page.
info: Increasing stack size by one page.
info: Increasing stack size by one page.
info: Increasing stack size by one page.
info: Increasing stack size by one page.
info: Increasing stack size by one page.
info: Increasing stack size by one page.
info: Increasing stack size by one page.
info: Increasing stack size by one page.
info: Increasing stack size by one page.
info: Increasing stack size by one page.
info: Increasing stack size by one page.
info: Increasing stack size by one page.
info: Increasing stack size by one page.
info: Increasing stack size by one page.
info: Increasing stack size by one page.
info: Increasing stack size by one page.
info: Increasing stack size by one page.
info: Increasing stack size by one page.
info: Increasing stack size by one page.
info: Increasing stack size by one page.
info: Increasing stack size by one page.
info: Increasing stack size by one page.
info: Increasing stack size by one page.
info: Increasing stack size by one page.
info: Increasing stack size by one page.
info: Increasing stack size by one page.
info: Increasing stack size by one page.
info: Increasing stack size by one page.
info: Increasing stack size by one page.
info: Increasing stack size by one page.
info: Increasing stack size by one page.
info: Increasing stack size by one page.
info: Increasing stack size by one page.
info: Increasing stack size by one page.
info: Increasing stack size by one page.
info: Increasing stack size by one page.
info: Increasing stack size by one page.
info: Increasing stack size by one page.
info: Increasing stack size by one page.
info: Increasing stack size by one page.
info: Increasing stack size by one page.
info: Increasing stack size by one page.
info: Increasing stack size by one page.
info: Increasing stack size by one page.
info: Increasing stack size by one page.
info: Increasing stack size by one page.
info: Increasing stack size by one page.
info: Increasing stack size by one page.
info: Increasing stack size by one page.
info: Increasing stack size by one page.
info: Increasing stack size by one page.
info: Increasing stack size by one page.
info: Increasing stack size by one page.
info: Increasing stack size by one page.
info: Increasing stack size by one page.
info: Increasing stack size by one page.
info: Increasing stack size by one page.
info: Increasing stack size by one page.
info: Increasing stack size by one page.
info: Increasing stack size by one page.
info: Increasing stack size by one page.
info: Increasing stack size by one page.
info: Increasing stack size by one page.
info: Increasing stack size by one page.
info: Increasing stack size by one page.
info: Increasing stack size by one page.
info: Increasing stack size by one page.
info: Increasing stack size by one page.
info: Increasing stack size by one page.
info: Increasing stack size by one page.
info: Increasing stack size by one page.
info: Increasing stack size by one page.
info: Increasing stack size by one page.
info: Increasing stack size by one page.
info: Increasing stack size by one page.
info: Increasing stack size by one page.
info: Increasing stack size by one page.
info: Increasing stack size by one page.
info: Increasing stack size by one page.
info: Increasing stack size by one page.
info: Increasing stack size by one page.
info: Increasing stack size by one page.
info: Increasing stack size by one page.
info: Increasing stack size by one page.
info: Increasing stack size by one page.
info: Increasing stack size by one page.
info: Increasing stack size by one page.
info: Increasing stack size by one page.
info: Increasing stack size by one page.
info: Increasing stack size by one page.
info: Increasing stack size by one page.
info: Increasing stack size by one page.
info: Increasing stack size by one page.
info: Increasing stack size by one page.
info: Increasing stack size by one page.
info: Increasing stack size by one page.
info: Increasing stack size by one page.
info: Increasing stack size by one page.
info: Increasing stack size by one page.
info: Increasing stack size by one page.
info: Increasing stack size by one page.
info: Increasing stack size by one page.
info: Increasing stack size by one page.
info: Increasing stack size by one page.
info: Increasing stack size by one page.
info: Increasing stack size by one page.
info: Increasing stack size by one page.
info: Increasing stack size by one page.
info: Increasing stack size by one page.
info: Increasing stack size by one page.
info: Increasing stack size by one page.
info: Increasing stack size by one page.
info: Increasing stack size by one page.
info: Increasing stack size by one page.
info: Increasing stack size by one page.
info: Increasing stack size by one page.
info: Increasing stack size by one page.
info: Increasing stack size by one page.
info: Increasing stack size by one page.
info: Increasing stack size by one page.
info: Increasing stack size by one page.
info: Increasing stack size by one page.
info: Increasing stack size by one page.
info: Increasing stack size by one page.
info: Increasing stack size by one page.
info: Increasing stack size by one page.
info: Increasing stack size by one page.
info: Increasing stack size by one page.
info: Increasing stack size by one page.
info: Increasing stack size by one page.
info: Increasing stack size by one page.
info: Increasing stack size by one page.
info: Increasing stack size by one page.
info: Increasing stack size by one page.
info: Increasing stack size by one page.
info: Increasing stack size by one page.
info: Increasing stack size by one page.
info: Increasing stack size by one page.
info: Increasing stack size by one page.
info: Increasing stack size by one page.
info: Increasing stack size by one page.
info: Increasing stack size by one page.
info: Increasing stack size by one page.
info: Increasing stack size by one page.
info: Increasing stack size by one page.
info: Increasing stack size by one page.
info: Increasing stack size by one page.
info: Increasing stack size by one page.
info: Increasing stack size by one page.
info: Increasing stack size by one page.
info: Increasing stack size by one page.
info: Increasing stack size by one page.
info: Increasing stack size by one page.
info: Increasing stack size by one page.
info: Increasing stack size by one page.
info: Increasing stack size by one page.
info: Increasing stack size by one page.
info: Increasing stack size by one page.
info: Increasing stack size by one page.
info: Increasing stack size by one page.
info: Increasing stack size by one page.
info: Increasing stack size by one page.
info: Increasing stack size by one page.
info: Increasing stack size by one page.
info: Increasing stack size by one page.
info: Increasing stack size by one page.
info: Increasing stack size by one page.
info: Increasing stack size by one page.
info: Increasing stack size by one page.
info: Increasing stack size by one page.
info: Increasing stack size by one page.
info: Increasing stack size by one page.
info: Increasing stack size by one page.
info: Increasing stack size by one page.
info: Increasing stack size by one page.
info: Increasing stack size by one page.
info: Increasing stack size by one page.
info: Increasing stack size by one page.
info: Increasing stack size by one page.
info: Increasing stack size by one page.
info: Increasing stack size by one page.
info: Increasing stack size by one page.
info: Increasing stack size by one page.
info: Increasing stack size by one page.
info: Increasing stack size by one page.
info: Increasing stack size by one page.
info: Increasing stack size by one page.
info: Increasing stack size by one page.
info: Increasing stack size by one page.
info: Increasing stack size by one page.
info: Increasing stack size by one page.
info: Increasing stack size by one page.
info: Increasing stack size by one page.
info: Increasing stack size by one page.
info: Increasing stack size by one page.
info: Increasing stack size by one page.
info: Increasing stack size by one page.
info: Increasing stack size by one page.
info: Increasing stack size by one page.
info: Increasing stack size by one page.
info: Increasing stack size by one page.
info: Increasing stack size by one page.
info: Increasing stack size by one page.
info: Increasing stack size by one page.
info: Increasing stack size by one page.
info: Increasing stack size by one page.
info: Increasing stack size by one page.
info: Increasing stack size by one page.
info: Increasing stack size by one page.
info: Increasing stack size by one page.
info: Increasing stack size by one page.
info: Increasing stack size by one page.
info: Increasing stack size by one page.
info: Increasing stack size by one page.
info: Increasing stack size by one page.
info: Increasing stack size by one page.
info: Increasing stack size by one page.
info: Increasing stack size by one page.
info: Increasing stack size by one page.
info: Increasing stack size by one page.
info: Increasing stack size by one page.
info: Increasing stack size by one page.
info: Increasing stack size by one page.
info: Increasing stack size by one page.
info: Increasing stack size by one page.
info: Increasing stack size by one page.
info: Increasing stack size by one page.
info: Increasing stack size by one page.
info: Increasing stack size by one page.
info: Increasing stack size by one page.
info: Increasing stack size by one page.
info: Increasing stack size by one page.
info: Increasing stack size by one page.
info: Increasing stack size by one page.
info: Increasing stack size by one page.
info: Increasing stack size by one page.
info: Increasing stack size by one page.
info: Increasing stack size by one page.
info: Increasing stack size by one page.
info: Increasing stack size by one page.
info: Increasing stack size by one page.
info: Increasing stack size by one page.
info: Increasing stack size by one page.
info: Increasing stack size by one page.
info: Increasing stack size by one page.
info: Increasing stack size by one page.
info: Increasing stack size by one page.
info: Increasing stack size by one page.
info: Increasing stack size by one page.
info: Increasing stack size by one page.
info: Increasing stack size by one page.
info: Increasing stack size by one page.
info: Increasing stack size by one page.
info: Increasing stack size by one page.
info: Increasing stack size by one page.
info: Increasing stack size by one page.
info: Increasing stack size by one page.
info: Increasing stack size by one page.
info: Increasing stack size by one page.
info: Increasing stack size by one page.
info: Increasing stack size by one page.
info: Increasing stack size by one page.
info: Increasing stack size by one page.
info: Increasing stack size by one page.
info: Increasing stack size by one page.
info: Increasing stack size by one page.
info: Increasing stack size by one page.
info: Increasing stack size by one page.
info: Increasing stack size by one page.
info: Increasing stack size by one page.
info: Increasing stack size by one page.
info: Increasing stack size by one page.
info: Increasing stack size by one page.
info: Increasing stack size by one page.
info: Increasing stack size by one page.
info: Increasing stack size by one page.
info: Increasing stack size by one page.
info: Increasing stack size by one page.
info: Increasing stack size by one page.
info: Increasing stack size by one page.
info: Increasing stack size by one page.
info: Increasing stack size by one page.
info: Increasing stack size by one page.
info: Increasing stack size by one page.
info: Increasing stack size by one page.
info: Increasing stack size by one page.
info: Increasing stack size by one page.
info: Increasing stack size by one page.
info: Increasing stack size by one page.
info: Increasing stack size by one page.
info: Increasing stack size by one page.
info: Increasing stack size by one page.
info: Increasing stack size by one page.
info: Increasing stack size by one page.
info: Increasing stack size by one page.
info: Increasing stack size by one page.
info: Increasing stack size by one page.
info: Increasing stack size by one page.
info: Increasing stack size by one page.
info: Increasing stack size by one page.
info: Increasing stack size by one page.
info: Increasing stack size by one page.
info: Increasing stack size by one page.
info: Increasing stack size by one page.
info: Increasing stack size by one page.
info: Increasing stack size by one page.
info: Increasing stack size by one page.
info: Increasing stack size by one page.
info: Increasing stack size by one page.
info: Increasing stack size by one page.
info: Increasing stack size by one page.
info: Increasing stack size by one page.
info: Increasing stack size by one page.
info: Increasing stack size by one page.
info: Increasing stack size by one page.
info: Increasing stack size by one page.
info: Increasing stack size by one page.
info: Increasing stack size by one page.
info: Increasing stack size by one page.
info: Increasing stack size by one page.
info: Increasing stack size by one page.
info: Increasing stack size by one page.
info: Increasing stack size by one page.
info: Increasing stack size by one page.
info: Increasing stack size by one page.
info: Increasing stack size by one page.
info: Increasing stack size by one page.
info: Increasing stack size by one page.
info: Increasing stack size by one page.
info: Increasing stack size by one page.
info: Increasing stack size by one page.
info: Increasing stack size by one page.
info: Increasing stack size by one page.
info: Increasing stack size by one page.
info: Increasing stack size by one page.
info: Increasing stack size by one page.
info: Increasing stack size by one page.
info: Increasing stack size by one page.
info: Increasing stack size by one page.
info: Increasing stack size by one page.
info: Increasing stack size by one page.
info: Increasing stack size by one page.
info: Increasing stack size by one page.
info: Increasing stack size by one page.
info: Increasing stack size by one page.
info: Increasing stack size by one page.
info: Increasing stack size by one page.
info: Increasing stack size by one page.
info: Increasing stack size by one page.
info: Increasing stack size by one page.
info: Increasing stack size by one page.
info: Increasing stack size by one page.
info: Increasing stack size by one page.
info: Increasing stack size by one page.
info: Increasing stack size by one page.
info: Increasing stack size by one page.
info: Increasing stack size by one page.
info: Increasing stack size by one page.
info: Increasing stack size by one page.
info: Increasing stack size by one page.
info: Increasing stack size by one page.
info: Increasing stack size by one page.
info: Increasing stack size by one page.
info: Increasing stack size by one page.
info: Increasing stack size by one page.
info: Increasing stack size by one page.
info: Increasing stack size by one page.
info: Increasing stack size by one page.
info: Increasing stack size by one page.
info: Increasing stack size by one page.
info: Increasing stack size by one page.
info: Increasing stack size by one page.
info: Increasing stack size by one page.
info: Increasing stack size by one page.
info: Increasing stack size by one page.
info: Increasing stack size by one page.
info: Increasing stack size by one page.
info: Increasing stack size by one page.
info: Increasing stack size by one page.
info: Increasing stack size by one page.
info: Increasing stack size by one page.
info: Increasing stack size by one page.
info: Increasing stack size by one page.
info: Increasing stack size by one page.
info: Increasing stack size by one page.
info: Increasing stack size by one page.
info: Increasing stack size by one page.
info: Increasing stack size by one page.
info: Increasing stack size by one page.
info: Increasing stack size by one page.
info: Increasing stack size by one page.
info: Increasing stack size by one page.
info: Increasing stack size by one page.
info: Increasing stack size by one page.
info: Increasing stack size by one page.
info: Increasing stack size by one page.
info: Increasing stack size by one page.
info: Increasing stack size by one page.
info: Increasing stack size by one page.
info: Increasing stack size by one page.
info: Increasing stack size by one page.
info: Increasing stack size by one page.
info: Increasing stack size by one page.
info: Increasing stack size by one page.
info: Increasing stack size by one page.
info: Increasing stack size by one page.
info: Increasing stack size by one page.
info: Increasing stack size by one page.
info: Increasing stack size by one page.
info: Increasing stack size by one page.
info: Increasing stack size by one page.
info: Increasing stack size by one page.
info: Increasing stack size by one page.
info: Increasing stack size by one page.
info: Increasing stack size by one page.
info: Increasing stack size by one page.
info: Increasing stack size by one page.
info: Increasing stack size by one page.
info: Increasing stack size by one page.
info: Increasing stack size by one page.
info: Increasing stack size by one page.
info: Increasing stack size by one page.
info: Increasing stack size by one page.
info: Increasing stack size by one page.
info: Increasing stack size by one page.
info: Increasing stack size by one page.
info: Increasing stack size by one page.
info: Increasing stack size by one page.
info: Increasing stack size by one page.
info: Increasing stack size by one page.
info: Increasing stack size by one page.
info: Increasing stack size by one page.
info: Increasing stack size by one page.
info: Increasing stack size by one page.
info: Increasing stack size by one page.
info: Increasing stack size by one page.
info: Increasing stack size by one page.
info: Increasing stack size by one page.
info: Increasing stack size by one page.
info: Increasing stack size by one page.
info: Increasing stack size by one page.
info: Increasing stack size by one page.
info: Increasing stack size by one page.
info: Increasing stack size by one page.
info: Increasing stack size by one page.
info: Increasing stack size by one page.
info: Increasing stack size by one page.
info: Increasing stack size by one page.
info: Increasing stack size by one page.
info: Increasing stack size by one page.
info: Increasing stack size by one page.
info: Increasing stack size by one page.
info: Increasing stack size by one page.
info: Increasing stack size by one page.
info: Increasing stack size by one page.
info: Increasing stack size by one page.
info: Increasing stack size by one page.
info: Increasing stack size by one page.
info: Increasing stack size by one page.
info: Increasing stack size by one page.
info: Increasing stack size by one page.
info: Increasing stack size by one page.
info: Increasing stack size by one page.
info: Increasing stack size by one page.
info: Increasing stack size by one page.
info: Increasing stack size by one page.
info: Increasing stack size by one page.
info: Increasing stack size by one page.
info: Increasing stack size by one page.
info: Increasing stack size by one page.
info: Increasing stack size by one page.
info: Increasing stack size by one page.
info: Increasing stack size by one page.
info: Increasing stack size by one page.
info: Increasing stack size by one page.
info: Increasing stack size by one page.
info: Increasing stack size by one page.
info: Increasing stack size by one page.
info: Increasing stack size by one page.
info: Increasing stack size by one page.
info: Increasing stack size by one page.
info: Increasing stack size by one page.
info: Increasing stack size by one page.
info: Increasing stack size by one page.
info: Increasing stack size by one page.
info: Increasing stack size by one page.
info: Increasing stack size by one page.
info: Increasing stack size by one page.
info: Increasing stack size by one page.
info: Increasing stack size by one page.
info: Increasing stack size by one page.
info: Increasing stack size by one page.
info: Increasing stack size by one page.
info: Increasing stack size by one page.
info: Increasing stack size by one page.
info: Increasing stack size by one page.
info: Increasing stack size by one page.
info: Increasing stack size by one page.
info: Increasing stack size by one page.
info: Increasing stack size by one page.
info: Increasing stack size by one page.
info: Increasing stack size by one page.
info: Increasing stack size by one page.
info: Increasing stack size by one page.
info: Increasing stack size by one page.
info: Increasing stack size by one page.
info: Increasing stack size by one page.
info: Increasing stack size by one page.
info: Increasing stack size by one page.
info: Increasing stack size by one page.
info: Increasing stack size by one page.
info: Increasing stack size by one page.
info: Increasing stack size by one page.
info: Increasing stack size by one page.
info: Increasing stack size by one page.
info: Increasing stack size by one page.
info: Increasing stack size by one page.
info: Increasing stack size by one page.
info: Increasing stack size by one page.
info: Increasing stack size by one page.
info: Increasing stack size by one page.
info: Increasing stack size by one page.
info: Increasing stack size by one page.
info: Increasing stack size by one page.
info: Increasing stack size by one page.
info: Increasing stack size by one page.
info: Increasing stack size by one page.
info: Increasing stack size by one page.
info: Increasing stack size by one page.
info: Increasing stack size by one page.
info: Increasing stack size by one page.
info: Increasing stack size by one page.
info: Increasing stack size by one page.
info: Increasing stack size by one page.
info: Increasing stack size by one page.
info: Increasing stack size by one page.
info: Increasing stack size by one page.
info: Increasing stack size by one page.
info: Increasing stack size by one page.
info: Increasing stack size by one page.
info: Increasing stack size by one page.
info: Increasing stack size by one page.
info: Increasing stack size by one page.
info: Increasing stack size by one page.
info: Increasing stack size by one page.
info: Increasing stack size by one page.
info: Increasing stack size by one page.
info: Increasing stack size by one page.
info: Increasing stack size by one page.
info: Increasing stack size by one page.
info: Increasing stack size by one page.
info: Increasing stack size by one page.
info: Increasing stack size by one page.
info: Increasing stack size by one page.
info: Increasing stack size by one page.
info: Increasing stack size by one page.
info: Increasing stack size by one page.
info: Increasing stack size by one page.
info: Increasing stack size by one page.
info: Increasing stack size by one page.
info: Increasing stack size by one page.
info: Increasing stack size by one page.
info: Increasing stack size by one page.
info: Increasing stack size by one page.
info: Increasing stack size by one page.
info: Increasing stack size by one page.
info: Increasing stack size by one page.
info: Increasing stack size by one page.
info: Increasing stack size by one page.
info: Increasing stack size by one page.
info: Increasing stack size by one page.
info: Increasing stack size by one page.
info: Increasing stack size by one page.
info: Increasing stack size by one page.
info: Increasing stack size by one page.
info: Increasing stack size by one page.
info: Increasing stack size by one page.
info: Increasing stack size by one page.
info: Increasing stack size by one page.
info: Increasing stack size by one page.
info: Increasing stack size by one page.
info: Increasing stack size by one page.
info: Increasing stack size by one page.
info: Increasing stack size by one page.
info: Increasing stack size by one page.
info: Increasing stack size by one page.
info: Increasing stack size by one page.
info: Increasing stack size by one page.
info: Increasing stack size by one page.
info: Increasing stack size by one page.
info: Increasing stack size by one page.
info: Increasing stack size by one page.
info: Increasing stack size by one page.
info: Increasing stack size by one page.
info: Increasing stack size by one page.
info: Increasing stack size by one page.
info: Increasing stack size by one page.
info: Increasing stack size by one page.
info: Increasing stack size by one page.
info: Increasing stack size by one page.
info: Increasing stack size by one page.
info: Increasing stack size by one page.
info: Increasing stack size by one page.
info: Increasing stack size by one page.
info: Increasing stack size by one page.
info: Increasing stack size by one page.
info: Increasing stack size by one page.
info: Increasing stack size by one page.
info: Increasing stack size by one page.
info: Increasing stack size by one page.
info: Increasing stack size by one page.
info: Increasing stack size by one page.
info: Increasing stack size by one page.
info: Increasing stack size by one page.
info: Increasing stack size by one page.
info: Increasing stack size by one page.
info: Increasing stack size by one page.
info: Increasing stack size by one page.
info: Increasing stack size by one page.
info: Increasing stack size by one page.
info: Increasing stack size by one page.
info: Increasing stack size by one page.
info: Increasing stack size by one page.
info: Increasing stack size by one page.
info: Increasing stack size by one page.
info: Increasing stack size by one page.
info: Increasing stack size by one page.
info: Increasing stack size by one page.
info: Increasing stack size by one page.
info: Increasing stack size by one page.
info: Increasing stack size by one page.
info: Increasing stack size by one page.
info: Increasing stack size by one page.
info: Increasing stack size by one page.
info: Increasing stack size by one page.
info: Increasing stack size by one page.
info: Increasing stack size by one page.
info: Increasing stack size by one page.
info: Increasing stack size by one page.
info: Increasing stack size by one page.
info: Increasing stack size by one page.
info: Increasing stack size by one page.
info: Increasing stack size by one page.
info: Increasing stack size by one page.
info: Increasing stack size by one page.
info: Increasing stack size by one page.
info: Increasing stack size by one page.
info: Increasing stack size by one page.
info: Increasing stack size by one page.
info: Increasing stack size by one page.
info: Increasing stack size by one page.
info: Increasing stack size by one page.
info: Increasing stack size by one page.
info: Increasing stack size by one page.
info: Increasing stack size by one page.
info: Increasing stack size by one page.
info: Increasing stack size by one page.
info: Increasing stack size by one page.
info: Increasing stack size by one page.
info: Increasing stack size by one page.
info: Increasing stack size by one page.
info: Increasing stack size by one page.
info: Increasing stack size by one page.
info: Increasing stack size by one page.
info: Increasing stack size by one page.
info: Increasing stack size by one page.
info: Increasing stack size by one page.
info: Increasing stack size by one page.
info: Increasing stack size by one page.
info: Increasing stack size by one page.
info: Increasing stack size by one page.
info: Increasing stack size by one page.
info: Increasing stack size by one page.
info: Increasing stack size by one page.
info: Increasing stack size by one page.
info: Increasing stack size by one page.
info: Increasing stack size by one page.
info: Increasing stack size by one page.
info: Increasing stack size by one page.
info: Increasing stack size by one page.
info: Increasing stack size by one page.
info: Increasing stack size by one page.
info: Increasing stack size by one page.
info: Increasing stack size by one page.
info: Increasing stack size by one page.
info: Increasing stack size by one page.
info: Increasing stack size by one page.
info: Increasing stack size by one page.
info: Increasing stack size by one page.
info: Increasing stack size by one page.
info: Increasing stack size by one page.
info: Increasing stack size by one page.
info: Increasing stack size by one page.
info: Increasing stack size by one page.
info: Increasing stack size by one page.
info: Increasing stack size by one page.
info: Increasing stack size by one page.
info: Increasing stack size by one page.
info: Increasing stack size by one page.
info: Increasing stack size by one page.
info: Increasing stack size by one page.
info: Increasing stack size by one page.
info: Increasing stack size by one page.
info: Increasing stack size by one page.
info: Increasing stack size by one page.
info: Increasing stack size by one page.
info: Increasing stack size by one page.
info: Increasing stack size by one page.
info: Increasing stack size by one page.
info: Increasing stack size by one page.
info: Increasing stack size by one page.
info: Increasing stack size by one page.
info: Increasing stack size by one page.
info: Increasing stack size by one page.
info: Increasing stack size by one page.
info: Increasing stack size by one page.
info: Increasing stack size by one page.
info: Increasing stack size by one page.
info: Increasing stack size by one page.
info: Increasing stack size by one page.
info: Increasing stack size by one page.
info: Increasing stack size by one page.
info: Increasing stack size by one page.
info: Increasing stack size by one page.
info: Increasing stack size by one page.
info: Increasing stack size by one page.
info: Increasing stack size by one page.
info: Increasing stack size by one page.
info: Increasing stack size by one page.
info: Increasing stack size by one page.
info: Increasing stack size by one page.
info: Increasing stack size by one page.
info: Increasing stack size by one page.
info: Increasing stack size by one page.
info: Increasing stack size by one page.
info: Increasing stack size by one page.
info: Increasing stack size by one page.
info: Increasing stack size by one page.
info: Increasing stack size by one page.
info: Increasing stack size by one page.
info: Increasing stack size by one page.
info: Increasing stack size by one page.
info: Increasing stack size by one page.
info: Increasing stack size by one page.
info: Increasing stack size by one page.
info: Increasing stack size by one page.
info: Increasing stack size by one page.
info: Increasing stack size by one page.
info: Increasing stack size by one page.
info: Increasing stack size by one page.
info: Increasing stack size by one page.
info: Increasing stack size by one page.
info: Increasing stack size by one page.
info: Increasing stack size by one page.
info: Increasing stack size by one page.
info: Increasing stack size by one page.
info: Increasing stack size by one page.
info: Increasing stack size by one page.
info: Increasing stack size by one page.
info: Increasing stack size by one page.
info: Increasing stack size by one page.
info: Increasing stack size by one page.
info: Increasing stack size by one page.
info: Increasing stack size by one page.
info: Increasing stack size by one page.
info: Increasing stack size by one page.
info: Increasing stack size by one page.
info: Increasing stack size by one page.
info: Increasing stack size by one page.
info: Increasing stack size by one page.
info: Increasing stack size by one page.
info: Increasing stack size by one page.
info: Increasing stack size by one page.
info: Increasing stack size by one page.
info: Increasing stack size by one page.
info: Increasing stack size by one page.
info: Increasing stack size by one page.
info: Increasing stack size by one page.
info: Increasing stack size by one page.
info: Increasing stack size by one page.
info: Increasing stack size by one page.
info: Increasing stack size by one page.
info: Increasing stack size by one page.
info: Increasing stack size by one page.
info: Increasing stack size by one page.
info: Increasing stack size by one page.
info: Increasing stack size by one page.
info: Increasing stack size by one page.
info: Increasing stack size by one page.
info: Increasing stack size by one page.
info: Increasing stack size by one page.
info: Increasing stack size by one page.
info: Increasing stack size by one page.
info: Increasing stack size by one page.
info: Increasing stack size by one page.
info: Increasing stack size by one page.
info: Increasing stack size by one page.
info: Increasing stack size by one page.
info: Increasing stack size by one page.
info: Increasing stack size by one page.
info: Increasing stack size by one page.
info: Increasing stack size by one page.
info: Increasing stack size by one page.
info: Increasing stack size by one page.
info: Increasing stack size by one page.
info: Increasing stack size by one page.
info: Increasing stack size by one page.
info: Increasing stack size by one page.
info: Increasing stack size by one page.
info: Increasing stack size by one page.
info: Increasing stack size by one page.
info: Increasing stack size by one page.
info: Increasing stack size by one page.
info: Increasing stack size by one page.
info: Increasing stack size by one page.
info: Increasing stack size by one page.
info: Increasing stack size by one page.
info: Increasing stack size by one page.
info: Increasing stack size by one page.
info: Increasing stack size by one page.
info: Increasing stack size by one page.
info: Increasing stack size by one page.
info: Increasing stack size by one page.
info: Increasing stack size by one page.
info: Increasing stack size by one page.
info: Increasing stack size by one page.
info: Increasing stack size by one page.
info: Increasing stack size by one page.
info: Increasing stack size by one page.
info: Increasing stack size by one page.
info: Increasing stack size by one page.
info: Increasing stack size by one page.
info: Increasing stack size by one page.
info: Increasing stack size by one page.
info: Increasing stack size by one page.
info: Increasing stack size by one page.
info: Increasing stack size by one page.
info: Increasing stack size by one page.
info: Increasing stack size by one page.
info: Increasing stack size by one page.
info: Increasing stack size by one page.
info: Increasing stack size by one page.
info: Increasing stack size by one page.
info: Increasing stack size by one page.
info: Increasing stack size by one page.
info: Increasing stack size by one page.
info: Increasing stack size by one page.
info: Increasing stack size by one page.
info: Increasing stack size by one page.
info: Increasing stack size by one page.
info: Increasing stack size by one page.
info: Increasing stack size by one page.
info: Increasing stack size by one page.
info: Increasing stack size by one page.
info: Increasing stack size by one page.
info: Increasing stack size by one page.
info: Increasing stack size by one page.
info: Increasing stack size by one page.
info: Increasing stack size by one page.
info: Increasing stack size by one page.
info: Increasing stack size by one page.
info: Increasing stack size by one page.
info: Increasing stack size by one page.
info: Increasing stack size by one page.
info: Increasing stack size by one page.
info: Increasing stack size by one page.
info: Increasing stack size by one page.
info: Increasing stack size by one page.
info: Increasing stack size by one page.
info: Increasing stack size by one page.
info: Increasing stack size by one page.
info: Increasing stack size by one page.
info: Increasing stack size by one page.
info: Increasing stack size by one page.
info: Increasing stack size by one page.
info: Increasing stack size by one page.
info: Increasing stack size by one page.
info: Increasing stack size by one page.
info: Increasing stack size by one page.
info: Increasing stack size by one page.
info: Increasing stack size by one page.
info: Increasing stack size by one page.
info: Increasing stack size by one page.
info: Increasing stack size by one page.
info: Increasing stack size by one page.
info: Increasing stack size by one page.
info: Increasing stack size by one page.
info: Increasing stack size by one page.
info: Increasing stack size by one page.
info: Increasing stack size by one page.
info: Increasing stack size by one page.
info: Increasing stack size by one page.
info: Increasing stack size by one page.
info: Increasing stack size by one page.
info: Increasing stack size by one page.
info: Increasing stack size by one page.
info: Increasing stack size by one page.
info: Increasing stack size by one page.
info: Increasing stack size by one page.
info: Increasing stack size by one page.
info: Increasing stack size by one page.
info: Increasing stack size by one page.
info: Increasing stack size by one page.
info: Increasing stack size by one page.
info: Increasing stack size by one page.
info: Increasing stack size by one page.
info: Increasing stack size by one page.
info: Increasing stack size by one page.
info: Increasing stack size by one page.
info: Increasing stack size by one page.
info: Increasing stack size by one page.
info: Increasing stack size by one page.
info: Increasing stack size by one page.
info: Increasing stack size by one page.
info: Increasing stack size by one page.
info: Increasing stack size by one page.
info: Increasing stack size by one page.
info: Increasing stack size by one page.
info: Increasing stack size by one page.
info: Increasing stack size by one page.
info: Increasing stack size by one page.
info: Increasing stack size by one page.
info: Increasing stack size by one page.
info: Increasing stack size by one page.
info: Increasing stack size by one page.
info: Increasing stack size by one page.
info: Increasing stack size by one page.
info: Increasing stack size by one page.
info: Increasing stack size by one page.
info: Increasing stack size by one page.
info: Increasing stack size by one page.
info: Increasing stack size by one page.
info: Increasing stack size by one page.
info: Increasing stack size by one page.
info: Increasing stack size by one page.
info: Increasing stack size by one page.
info: Increasing stack size by one page.
info: Increasing stack size by one page.
info: Increasing stack size by one page.
info: Increasing stack size by one page.
info: Increasing stack size by one page.
info: Increasing stack size by one page.
info: Increasing stack size by one page.
info: Increasing stack size by one page.
info: Increasing stack size by one page.
info: Increasing stack size by one page.
info: Increasing stack size by one page.
info: Increasing stack size by one page.
info: Increasing stack size by one page.
info: Increasing stack size by one page.
info: Increasing stack size by one page.
info: Increasing stack size by one page.
info: Increasing stack size by one page.
info: Increasing stack size by one page.
info: Increasing stack size by one page.
info: Increasing stack size by one page.
info: Increasing stack size by one page.
info: Increasing stack size by one page.
info: Increasing stack size by one page.
info: Increasing stack size by one page.
info: Increasing stack size by one page.
info: Increasing stack size by one page.
info: Increasing stack size by one page.
info: Increasing stack size by one page.
info: Increasing stack size by one page.
info: Increasing stack size by one page.
info: Increasing stack size by one page.
info: Increasing stack size by one page.
info: Increasing stack size by one page.
info: Increasing stack size by one page.
info: Increasing stack size by one page.
info: Increasing stack size by one page.
info: Increasing stack size by one page.
info: Increasing stack size by one page.
info: Increasing stack size by one page.
info: Increasing stack size by one page.
info: Increasing stack size by one page.
info: Increasing stack size by one page.
info: Increasing stack size by one page.
info: Increasing stack size by one page.
info: Increasing stack size by one page.
info: Increasing stack size by one page.
info: Increasing stack size by one page.
info: Increasing stack size by one page.
info: Increasing stack size by one page.
info: Increasing stack size by one page.
info: Increasing stack size by one page.
info: Increasing stack size by one page.
info: Increasing stack size by one page.
info: Increasing stack size by one page.
info: Increasing stack size by one page.
info: Increasing stack size by one page.
info: Increasing stack size by one page.
info: Increasing stack size by one page.
info: Increasing stack size by one page.
[...]
i0.defaultMemory.channel3.FRFCFS-WQF.channel3.rank0.bank5.subarray0.activeEnergy 275.512nJ
i0.defaultMemory.channel3.FRFCFS-WQF.channel3.rank0.bank5.subarray0.burstEnergy 5735.04nJ
i0.defaultMemory.channel3.FRFCFS-WQF.channel3.rank0.bank5.subarray0.writeEnergy 101721nJ
i0.defaultMemory.channel3.FRFCFS-WQF.channel3.rank0.bank5.subarray0.refreshEnergy 0nJ
i0.defaultMemory.channel3.FRFCFS-WQF.channel3.rank0.bank5.subarray0.cancelledWrites 0
i0.defaultMemory.channel3.FRFCFS-WQF.channel3.rank0.bank5.subarray0.cancelledWriteTime 0
i0.defaultMemory.channel3.FRFCFS-WQF.channel3.rank0.bank5.subarray0.pausedWrites 0
i0.defaultMemory.channel3.FRFCFS-WQF.channel3.rank0.bank5.subarray0.averagePausesPerRequest 0
i0.defaultMemory.channel3.FRFCFS-WQF.channel3.rank0.bank5.subarray0.measuredPauses 3397
i0.defaultMemory.channel3.FRFCFS-WQF.channel3.rank0.bank5.subarray0.averagePausedRequestProgress 0
i0.defaultMemory.channel3.FRFCFS-WQF.channel3.rank0.bank5.subarray0.measuredProgresses 0
i0.defaultMemory.channel3.FRFCFS-WQF.channel3.rank0.bank5.subarray0.reads 7263
i0.defaultMemory.channel3.FRFCFS-WQF.channel3.rank0.bank5.subarray0.writes 3397
i0.defaultMemory.channel3.FRFCFS-WQF.channel3.rank0.bank5.subarray0.activates 3393
i0.defaultMemory.channel3.FRFCFS-WQF.channel3.rank0.bank5.subarray0.precharges 3392
i0.defaultMemory.channel3.FRFCFS-WQF.channel3.rank0.bank5.subarray0.refreshes 0
i0.defaultMemory.channel3.FRFCFS-WQF.channel3.rank0.bank5.subarray0.worstCaseEndurance 18446744073709551615
i0.defaultMemory.channel3.FRFCFS-WQF.channel3.rank0.bank5.subarray0.averageEndurance 0
i0.defaultMemory.channel3.FRFCFS-WQF.channel3.rank0.bank5.subarray0.actWaits 0
i0.defaultMemory.channel3.FRFCFS-WQF.channel3.rank0.bank5.subarray0.actWaitTotal 0
i0.defaultMemory.channel3.FRFCFS-WQF.channel3.rank0.bank5.subarray0.actWaitAverage -nan
i0.defaultMemory.channel3.FRFCFS-WQF.channel3.rank0.bank5.subarray0.worstCaseWrite 0
i0.defaultMemory.channel3.FRFCFS-WQF.channel3.rank0.bank5.subarray0.num00Writes 0
i0.defaultMemory.channel3.FRFCFS-WQF.channel3.rank0.bank5.subarray0.num01Writes 0
i0.defaultMemory.channel3.FRFCFS-WQF.channel3.rank0.bank5.subarray0.num10Writes 0
i0.defaultMemory.channel3.FRFCFS-WQF.channel3.rank0.bank5.subarray0.num11Writes 0
i0.defaultMemory.channel3.FRFCFS-WQF.channel3.rank0.bank5.subarray0.averageWriteTime 60
i0.defaultMemory.channel3.FRFCFS-WQF.channel3.rank0.bank5.subarray0.measuredWriteTimes 3397
i0.defaultMemory.channel3.FRFCFS-WQF.channel3.rank0.bank5.subarray0.mlcTimingHisto {}
i0.defaultMemory.channel3.FRFCFS-WQF.channel3.rank0.bank5.subarray0.cancelCountHisto {0: 3396}
i0.defaultMemory.channel3.FRFCFS-WQF.channel3.rank0.bank5.subarray0.wpPauseHisto {}
i0.defaultMemory.channel3.FRFCFS-WQF.channel3.rank0.bank5.subarray0.wpCancelHisto {}
i0.defaultMemory.channel3.FRFCFS-WQF.channel3.rank0.bank5.bankEnergy 107732nJ
i0.defaultMemory.channel3.FRFCFS-WQF.channel3.rank0.bank5.activeEnergy 275.512nJ
i0.defaultMemory.channel3.FRFCFS-WQF.channel3.rank0.bank5.burstEnergy 5735.04nJ
i0.defaultMemory.channel3.FRFCFS-WQF.channel3.rank0.bank5.refreshEnergy 0nJ
i0.defaultMemory.channel3.FRFCFS-WQF.channel3.rank0.bank5.bankPower 3.70511e+06W
i0.defaultMemory.channel3.FRFCFS-WQF.channel3.rank0.bank5.activePower 9475.38W
i0.defaultMemory.channel3.FRFCFS-WQF.channel3.rank0.bank5.burstPower 197239W
i0.defaultMemory.channel3.FRFCFS-WQF.channel3.rank0.bank5.refreshPower 0W
i0.defaultMemory.channel3.FRFCFS-WQF.channel3.rank0.bank5.bandwidth 125.202MB/s
i0.defaultMemory.channel3.FRFCFS-WQF.channel3.rank0.bank5.dataCycles 42640
i0.defaultMemory.channel3.FRFCFS-WQF.channel3.rank0.bank5.powerCycles 29076561
i0.defaultMemory.channel3.FRFCFS-WQF.channel3.rank0.bank5.utilization 0.00146647
i0.defaultMemory.channel3.FRFCFS-WQF.channel3.rank0.bank5.reads 7263
i0.defaultMemory.channel3.FRFCFS-WQF.channel3.rank0.bank5.writes 3397
i0.defaultMemory.channel3.FRFCFS-WQF.channel3.rank0.bank5.activates 3393
i0.defaultMemory.channel3.FRFCFS-WQF.channel3.rank0.bank5.precharges 3392
i0.defaultMemory.channel3.FRFCFS-WQF.channel3.rank0.bank5.refreshes 0
i0.defaultMemory.channel3.FRFCFS-WQF.channel3.rank0.bank5.activeCycles 28880913
i0.defaultMemory.channel3.FRFCFS-WQF.channel3.rank0.bank5.standbyCycles 195648
i0.defaultMemory.channel3.FRFCFS-WQF.channel3.rank0.bank5.fastExitActiveCycles 0
i0.defaultMemory.channel3.FRFCFS-WQF.channel3.rank0.bank5.fastExitPrechargeCycles 0
i0.defaultMemory.channel3.FRFCFS-WQF.channel3.rank0.bank5.slowExitPrechargeCycles 0
i0.defaultMemory.channel3.FRFCFS-WQF.channel3.rank0.bank5.actWaits 0
i0.defaultMemory.channel3.FRFCFS-WQF.channel3.rank0.bank5.actWaitTotal 0
i0.defaultMemory.channel3.FRFCFS-WQF.channel3.rank0.bank5.actWaitAverage -nan
i0.defaultMemory.channel3.FRFCFS-WQF.channel3.rank0.bank5.averageEndurance 0
i0.defaultMemory.channel3.FRFCFS-WQF.channel3.rank0.bank5.worstCaseEndurance 18446744073709551615
i0.defaultMemory.channel3.FRFCFS-WQF.channel3.rank0.bank6.decoder.migratedAccesses 0
i0.defaultMemory.channel3.FRFCFS-WQF.channel3.rank0.bank6.subarray0.subArrayEnergy 117240nJ
i0.defaultMemory.channel3.FRFCFS-WQF.channel3.rank0.bank6.subarray0.activeEnergy 274.05nJ
i0.defaultMemory.channel3.FRFCFS-WQF.channel3.rank0.bank6.subarray0.burstEnergy 6244.73nJ
i0.defaultMemory.channel3.FRFCFS-WQF.channel3.rank0.bank6.subarray0.writeEnergy 110721nJ
i0.defaultMemory.channel3.FRFCFS-WQF.channel3.rank0.bank6.subarray0.refreshEnergy 0nJ
i0.defaultMemory.channel3.FRFCFS-WQF.channel3.rank0.bank6.subarray0.cancelledWrites 0
i0.defaultMemory.channel3.FRFCFS-WQF.channel3.rank0.bank6.subarray0.cancelledWriteTime 0
i0.defaultMemory.channel3.FRFCFS-WQF.channel3.rank0.bank6.subarray0.pausedWrites 0
i0.defaultMemory.channel3.FRFCFS-WQF.channel3.rank0.bank6.subarray0.averagePausesPerRequest 0
i0.defaultMemory.channel3.FRFCFS-WQF.channel3.rank0.bank6.subarray0.measuredPauses 3699
i0.defaultMemory.channel3.FRFCFS-WQF.channel3.rank0.bank6.subarray0.averagePausedRequestProgress 0
i0.defaultMemory.channel3.FRFCFS-WQF.channel3.rank0.bank6.subarray0.measuredProgresses 0
i0.defaultMemory.channel3.FRFCFS-WQF.channel3.rank0.bank6.subarray0.reads 7807
i0.defaultMemory.channel3.FRFCFS-WQF.channel3.rank0.bank6.subarray0.writes 3699
i0.defaultMemory.channel3.FRFCFS-WQF.channel3.rank0.bank6.subarray0.activates 3375
i0.defaultMemory.channel3.FRFCFS-WQF.channel3.rank0.bank6.subarray0.precharges 3374
i0.defaultMemory.channel3.FRFCFS-WQF.channel3.rank0.bank6.subarray0.refreshes 0
i0.defaultMemory.channel3.FRFCFS-WQF.channel3.rank0.bank6.subarray0.worstCaseEndurance 18446744073709551615
i0.defaultMemory.channel3.FRFCFS-WQF.channel3.rank0.bank6.subarray0.averageEndurance 0
i0.defaultMemory.channel3.FRFCFS-WQF.channel3.rank0.bank6.subarray0.actWaits 0
i0.defaultMemory.channel3.FRFCFS-WQF.channel3.rank0.bank6.subarray0.actWaitTotal 0
i0.defaultMemory.channel3.FRFCFS-WQF.channel3.rank0.bank6.subarray0.actWaitAverage -nan
i0.defaultMemory.channel3.FRFCFS-WQF.channel3.rank0.bank6.subarray0.worstCaseWrite 0
i0.defaultMemory.channel3.FRFCFS-WQF.channel3.rank0.bank6.subarray0.num00Writes 0
i0.defaultMemory.channel3.FRFCFS-WQF.channel3.rank0.bank6.subarray0.num01Writes 0
i0.defaultMemory.channel3.FRFCFS-WQF.channel3.rank0.bank6.subarray0.num10Writes 0
i0.defaultMemory.channel3.FRFCFS-WQF.channel3.rank0.bank6.subarray0.num11Writes 0
i0.defaultMemory.channel3.FRFCFS-WQF.channel3.rank0.bank6.subarray0.averageWriteTime 60
i0.defaultMemory.channel3.FRFCFS-WQF.channel3.rank0.bank6.subarray0.measuredWriteTimes 3699
i0.defaultMemory.channel3.FRFCFS-WQF.channel3.rank0.bank6.subarray0.mlcTimingHisto {}
i0.defaultMemory.channel3.FRFCFS-WQF.channel3.rank0.bank6.subarray0.cancelCountHisto {0: 3698}
i0.defaultMemory.channel3.FRFCFS-WQF.channel3.rank0.bank6.subarray0.wpPauseHisto {}
i0.defaultMemory.channel3.FRFCFS-WQF.channel3.rank0.bank6.subarray0.wpCancelHisto {}
i0.defaultMemory.channel3.FRFCFS-WQF.channel3.rank0.bank6.bankEnergy 117240nJ
i0.defaultMemory.channel3.FRFCFS-WQF.channel3.rank0.bank6.activeEnergy 274.05nJ
i0.defaultMemory.channel3.FRFCFS-WQF.channel3.rank0.bank6.burstEnergy 6244.73nJ
i0.defaultMemory.channel3.FRFCFS-WQF.channel3.rank0.bank6.refreshEnergy 0nJ
i0.defaultMemory.channel3.FRFCFS-WQF.channel3.rank0.bank6.bankPower 4.0321e+06W
i0.defaultMemory.channel3.FRFCFS-WQF.channel3.rank0.bank6.activePower 9425.12W
i0.defaultMemory.channel3.FRFCFS-WQF.channel3.rank0.bank6.burstPower 214769W
i0.defaultMemory.channel3.FRFCFS-WQF.channel3.rank0.bank6.refreshPower 0W
i0.defaultMemory.channel3.FRFCFS-WQF.channel3.rank0.bank6.bandwidth 135.138MB/s
i0.defaultMemory.channel3.FRFCFS-WQF.channel3.rank0.bank6.dataCycles 46024
i0.defaultMemory.channel3.FRFCFS-WQF.channel3.rank0.bank6.powerCycles 29076561
i0.defaultMemory.channel3.FRFCFS-WQF.channel3.rank0.bank6.utilization 0.00158286
i0.defaultMemory.channel3.FRFCFS-WQF.channel3.rank0.bank6.reads 7807
i0.defaultMemory.channel3.FRFCFS-WQF.channel3.rank0.bank6.writes 3699
i0.defaultMemory.channel3.FRFCFS-WQF.channel3.rank0.bank6.activates 3375
i0.defaultMemory.channel3.FRFCFS-WQF.channel3.rank0.bank6.precharges 3374
i0.defaultMemory.channel3.FRFCFS-WQF.channel3.rank0.bank6.refreshes 0
i0.defaultMemory.channel3.FRFCFS-WQF.channel3.rank0.bank6.activeCycles 28867707
i0.defaultMemory.channel3.FRFCFS-WQF.channel3.rank0.bank6.standbyCycles 208854
i0.defaultMemory.channel3.FRFCFS-WQF.channel3.rank0.bank6.fastExitActiveCycles 0
i0.defaultMemory.channel3.FRFCFS-WQF.channel3.rank0.bank6.fastExitPrechargeCycles 0
i0.defaultMemory.channel3.FRFCFS-WQF.channel3.rank0.bank6.slowExitPrechargeCycles 0
i0.defaultMemory.channel3.FRFCFS-WQF.channel3.rank0.bank6.actWaits 0
i0.defaultMemory.channel3.FRFCFS-WQF.channel3.rank0.bank6.actWaitTotal 0
i0.defaultMemory.channel3.FRFCFS-WQF.channel3.rank0.bank6.actWaitAverage -nan
i0.defaultMemory.channel3.FRFCFS-WQF.channel3.rank0.bank6.averageEndurance 0
i0.defaultMemory.channel3.FRFCFS-WQF.channel3.rank0.bank6.worstCaseEndurance 18446744073709551615
i0.defaultMemory.channel3.FRFCFS-WQF.channel3.rank0.bank7.decoder.migratedAccesses 0
i0.defaultMemory.channel3.FRFCFS-WQF.channel3.rank0.bank7.subarray0.subArrayEnergy 103958nJ
i0.defaultMemory.channel3.FRFCFS-WQF.channel3.rank0.bank7.subarray0.activeEnergy 255.536nJ
i0.defaultMemory.channel3.FRFCFS-WQF.channel3.rank0.bank7.subarray0.burstEnergy 5516.7nJ
i0.defaultMemory.channel3.FRFCFS-WQF.channel3.rank0.bank7.subarray0.writeEnergy 98186nJ
i0.defaultMemory.channel3.FRFCFS-WQF.channel3.rank0.bank7.subarray0.refreshEnergy 0nJ
i0.defaultMemory.channel3.FRFCFS-WQF.channel3.rank0.bank7.subarray0.cancelledWrites 0
i0.defaultMemory.channel3.FRFCFS-WQF.channel3.rank0.bank7.subarray0.cancelledWriteTime 0
i0.defaultMemory.channel3.FRFCFS-WQF.channel3.rank0.bank7.subarray0.pausedWrites 0
i0.defaultMemory.channel3.FRFCFS-WQF.channel3.rank0.bank7.subarray0.averagePausesPerRequest 0
i0.defaultMemory.channel3.FRFCFS-WQF.channel3.rank0.bank7.subarray0.measuredPauses 3268
i0.defaultMemory.channel3.FRFCFS-WQF.channel3.rank0.bank7.subarray0.averagePausedRequestProgress 0
i0.defaultMemory.channel3.FRFCFS-WQF.channel3.rank0.bank7.subarray0.measuredProgresses 0
i0.defaultMemory.channel3.FRFCFS-WQF.channel3.rank0.bank7.subarray0.reads 6642
i0.defaultMemory.channel3.FRFCFS-WQF.channel3.rank0.bank7.subarray0.writes 3268
i0.defaultMemory.channel3.FRFCFS-WQF.channel3.rank0.bank7.subarray0.activates 3147
i0.defaultMemory.channel3.FRFCFS-WQF.channel3.rank0.bank7.subarray0.precharges 3146
i0.defaultMemory.channel3.FRFCFS-WQF.channel3.rank0.bank7.subarray0.refreshes 0
i0.defaultMemory.channel3.FRFCFS-WQF.channel3.rank0.bank7.subarray0.worstCaseEndurance 18446744073709551615
i0.defaultMemory.channel3.FRFCFS-WQF.channel3.rank0.bank7.subarray0.averageEndurance 0
i0.defaultMemory.channel3.FRFCFS-WQF.channel3.rank0.bank7.subarray0.actWaits 0
i0.defaultMemory.channel3.FRFCFS-WQF.channel3.rank0.bank7.subarray0.actWaitTotal 0
i0.defaultMemory.channel3.FRFCFS-WQF.channel3.rank0.bank7.subarray0.actWaitAverage -nan
i0.defaultMemory.channel3.FRFCFS-WQF.channel3.rank0.bank7.subarray0.worstCaseWrite 0
i0.defaultMemory.channel3.FRFCFS-WQF.channel3.rank0.bank7.subarray0.num00Writes 0
i0.defaultMemory.channel3.FRFCFS-WQF.channel3.rank0.bank7.subarray0.num01Writes 0
i0.defaultMemory.channel3.FRFCFS-WQF.channel3.rank0.bank7.subarray0.num10Writes 0
i0.defaultMemory.channel3.FRFCFS-WQF.channel3.rank0.bank7.subarray0.num11Writes 0
i0.defaultMemory.channel3.FRFCFS-WQF.channel3.rank0.bank7.subarray0.averageWriteTime 60
i0.defaultMemory.channel3.FRFCFS-WQF.channel3.rank0.bank7.subarray0.measuredWriteTimes 3268
i0.defaultMemory.channel3.FRFCFS-WQF.channel3.rank0.bank7.subarray0.mlcTimingHisto {}
i0.defaultMemory.channel3.FRFCFS-WQF.channel3.rank0.bank7.subarray0.cancelCountHisto {0: 3267}
i0.defaultMemory.channel3.FRFCFS-WQF.channel3.rank0.bank7.subarray0.wpPauseHisto {}
i0.defaultMemory.channel3.FRFCFS-WQF.channel3.rank0.bank7.subarray0.wpCancelHisto {}
i0.defaultMemory.channel3.FRFCFS-WQF.channel3.rank0.bank7.bankEnergy 103958nJ
i0.defaultMemory.channel3.FRFCFS-WQF.channel3.rank0.bank7.activeEnergy 255.536nJ
i0.defaultMemory.channel3.FRFCFS-WQF.channel3.rank0.bank7.burstEnergy 5516.7nJ
i0.defaultMemory.channel3.FRFCFS-WQF.channel3.rank0.bank7.refreshEnergy 0nJ
i0.defaultMemory.channel3.FRFCFS-WQF.channel3.rank0.bank7.bankPower 3.57533e+06W
i0.defaultMemory.channel3.FRFCFS-WQF.channel3.rank0.bank7.activePower 8788.4W
i0.defaultMemory.channel3.FRFCFS-WQF.channel3.rank0.bank7.burstPower 189730W
i0.defaultMemory.channel3.FRFCFS-WQF.channel3.rank0.bank7.refreshPower 0W
i0.defaultMemory.channel3.FRFCFS-WQF.channel3.rank0.bank7.bandwidth 116.393MB/s
i0.defaultMemory.channel3.FRFCFS-WQF.channel3.rank0.bank7.dataCycles 39640
i0.defaultMemory.channel3.FRFCFS-WQF.channel3.rank0.bank7.powerCycles 29076561
i0.defaultMemory.channel3.FRFCFS-WQF.channel3.rank0.bank7.utilization 0.0013633
i0.defaultMemory.channel3.FRFCFS-WQF.channel3.rank0.bank7.reads 6642
i0.defaultMemory.channel3.FRFCFS-WQF.channel3.rank0.bank7.writes 3268
i0.defaultMemory.channel3.FRFCFS-WQF.channel3.rank0.bank7.activates 3147
i0.defaultMemory.channel3.FRFCFS-WQF.channel3.rank0.bank7.precharges 3146
i0.defaultMemory.channel3.FRFCFS-WQF.channel3.rank0.bank7.refreshes 0
i0.defaultMemory.channel3.FRFCFS-WQF.channel3.rank0.bank7.activeCycles 28956923
i0.defaultMemory.channel3.FRFCFS-WQF.channel3.rank0.bank7.standbyCycles 119638
i0.defaultMemory.channel3.FRFCFS-WQF.channel3.rank0.bank7.fastExitActiveCycles 0
i0.defaultMemory.channel3.FRFCFS-WQF.channel3.rank0.bank7.fastExitPrechargeCycles 0
i0.defaultMemory.channel3.FRFCFS-WQF.channel3.rank0.bank7.slowExitPrechargeCycles 0
i0.defaultMemory.channel3.FRFCFS-WQF.channel3.rank0.bank7.actWaits 0
i0.defaultMemory.channel3.FRFCFS-WQF.channel3.rank0.bank7.actWaitTotal 0
i0.defaultMemory.channel3.FRFCFS-WQF.channel3.rank0.bank7.actWaitAverage -nan
i0.defaultMemory.channel3.FRFCFS-WQF.channel3.rank0.bank7.averageEndurance 0
i0.defaultMemory.channel3.FRFCFS-WQF.channel3.rank0.bank7.worstCaseEndurance 18446744073709551615
i0.defaultMemory.channel3.FRFCFS-WQF.channel3.rank0.totalEnergy 3.51247e+06nJ
i0.defaultMemory.channel3.FRFCFS-WQF.channel3.rank0.backgroundEnergy 2.61951e+06nJ
i0.defaultMemory.channel3.FRFCFS-WQF.channel3.rank0.activateEnergy 2016.36nJ
i0.defaultMemory.channel3.FRFCFS-WQF.channel3.rank0.burstEnergy 44943.3nJ
i0.defaultMemory.channel3.FRFCFS-WQF.channel3.rank0.refreshEnergy 0nJ
i0.defaultMemory.channel3.FRFCFS-WQF.channel3.rank0.totalPower 0.0611673W
i0.defaultMemory.channel3.FRFCFS-WQF.channel3.rank0.backgroundPower 0.06009W
i0.defaultMemory.channel3.FRFCFS-WQF.channel3.rank0.activatePower 4.62541e-05W
i0.defaultMemory.channel3.FRFCFS-WQF.channel3.rank0.burstPower 0.00103098W
i0.defaultMemory.channel3.FRFCFS-WQF.channel3.rank0.refreshPower 0W
i0.defaultMemory.channel3.FRFCFS-WQF.channel3.rank0.reads 53800
i0.defaultMemory.channel3.FRFCFS-WQF.channel3.rank0.writes 26624
i0.defaultMemory.channel3.FRFCFS-WQF.channel3.rank0.activeCycles 29076561
i0.defaultMemory.channel3.FRFCFS-WQF.channel3.rank0.standbyCycles 0
i0.defaultMemory.channel3.FRFCFS-WQF.channel3.rank0.fastExitActiveCycles 0
i0.defaultMemory.channel3.FRFCFS-WQF.channel3.rank0.fastExitPrechargeCycles 0
i0.defaultMemory.channel3.FRFCFS-WQF.channel3.rank0.slowExitCycles 0
i0.defaultMemory.channel3.FRFCFS-WQF.channel3.rank0.actWaits 13602
i0.defaultMemory.channel3.FRFCFS-WQF.channel3.rank0.actWaitTotal 29968
i0.defaultMemory.channel3.FRFCFS-WQF.channel3.rank0.actWaitAverage 2.20321
i0.defaultMemory.channel3.FRFCFS-WQF.channel3.rank0.rrdWaits 13602
i0.defaultMemory.channel3.FRFCFS-WQF.channel3.rank0.rrdWaitTotal 29968
i0.defaultMemory.channel3.FRFCFS-WQF.channel3.rank0.rrdWaitAverage 2.20321
i0.defaultMemory.channel3.FRFCFS-WQF.channel3.rank0.fawWaits 2533
i0.defaultMemory.channel3.FRFCFS-WQF.channel3.rank0.fawWaitTotal 9804
i0.defaultMemory.channel3.FRFCFS-WQF.channel3.rank0.fawWaitAverage 3.87051
i0.defaultMemory.channel3.FRFCFS-WQF.mem_reads 53800
i0.defaultMemory.channel3.FRFCFS-WQF.mem_writes 26651
i0.defaultMemory.channel3.FRFCFS-WQF.rq_rb_hits 42328
i0.defaultMemory.channel3.FRFCFS-WQF.rq_rb_miss 11472
i0.defaultMemory.channel3.FRFCFS-WQF.wq_rb_hits 13264
i0.defaultMemory.channel3.FRFCFS-WQF.wq_rb_miss 13360
i0.defaultMemory.channel3.FRFCFS-WQF.total_drains 1663
i0.defaultMemory.channel3.FRFCFS-WQF.total_drain_writes 26608
i0.defaultMemory.channel3.FRFCFS-WQF.average_writes_per_drain 16
i0.defaultMemory.channel3.FRFCFS-WQF.minimum_drain_writes 16
i0.defaultMemory.channel3.FRFCFS-WQF.maximum_drain_writes 16
i0.defaultMemory.channel3.FRFCFS-WQF.total_drain_cycles 413020
i0.defaultMemory.channel3.FRFCFS-WQF.average_drain_cycles 248.358
i0.defaultMemory.channel3.FRFCFS-WQF.minimum_drain_cycles 74
i0.defaultMemory.channel3.FRFCFS-WQF.maximum_drain_cycles 1092
i0.defaultMemory.channel3.FRFCFS-WQF.total_non_drain_cycles 27396479
i0.defaultMemory.channel3.FRFCFS-WQF.average_drain_spacing 16474.1
i0.defaultMemory.channel3.FRFCFS-WQF.minimum_drain_spacing 646
i0.defaultMemory.channel3.FRFCFS-WQF.maximum_drain_spacing 340250
i0.defaultMemory.channel3.FRFCFS-WQF.total_read_cycles 26983459
i0.defaultMemory.channel3.FRFCFS-WQF.average_read_spacing 16225.8
i0.defaultMemory.channel3.FRFCFS-WQF.minimum_read_spacing 336
i0.defaultMemory.channel3.FRFCFS-WQF.maximum_read_spacing 340125
i0.defaultMemory.channel3.FRFCFS-WQF.total_readqueue_size 4
i0.defaultMemory.channel3.FRFCFS-WQF.average_predrain_readqueue_size 0.00240529
i0.defaultMemory.channel3.FRFCFS-WQF.minimum_predrain_readqueue_size 0
i0.defaultMemory.channel3.FRFCFS-WQF.maximum_predrain_readqueue_size 1
i0.defaultMemory.channel3.FRFCFS-WQF.total_reads_during_drain 1080
i0.defaultMemory.channel3.FRFCFS-WQF.average_reads_during_drain 0.649429
i0.defaultMemory.channel3.FRFCFS-WQF.minimum_reads_during_drain 0
i0.defaultMemory.channel3.FRFCFS-WQF.maximum_reads_during_drain 5
i0.defaultMemory.channel3.FRFCFS-WQF.starvation_precharges 4457
i0.defaultMemory.channel3.FRFCFS-WQF.averageLatency 59.2732
i0.defaultMemory.channel3.FRFCFS-WQF.averageQueueLatency 8061.24
i0.defaultMemory.channel3.FRFCFS-WQF.averageTotalLatency 8120.51
i0.defaultMemory.channel3.FRFCFS-WQF.measuredLatencies 80424
i0.defaultMemory.channel3.FRFCFS-WQF.measuredQueueLatencies 80424
i0.defaultMemory.channel3.FRFCFS-WQF.measuredTotalLatencies 80424
i0.defaultMemory.channel3.FRFCFS-WQF.simulation_cycles 29076561
i0.defaultMemory.channel3.FRFCFS-WQF.wakeupCount 173851
i0.defaultMemory.totalReadRequests 281445
i0.defaultMemory.totalWriteRequests 139903
i0.defaultMemory.successfulPrefetches 0
i0.defaultMemory.unsuccessfulPrefetches 0
]0;root@server2: /home/server2/stx-gem/gem5-11688root@server2:/home/server2/stx-gem/gem5-11688# exit

è„šæœ¬å®Œæˆï¼ŒäºŽ 2019å¹´07æœˆ15æ—¥ æ˜ŸæœŸä¸€ 20æ—¶33åˆ†33ç§’
