è„šæœ¬å¯åŠ¨äºŽ 2019å¹´07æœˆ16æ—¥ æ˜ŸæœŸäºŒ 20æ—¶47åˆ†18ç§’
]0;root@server2: /home/server2/stx-gem/gem5-11688root@server2:/home/server2/stx-gem/gem5-11688# build/X86/gem5.opt --stats-file=W BAR_lbm.txt ./configs/example/se_benchmark_spec06.py --benchmark=lbm --mem-type= NVMainMemory --nvmain-config=nvmain/Config/Hybrid_example.config --cpu-clock=2GH z --cpu-type=detailed -I 100000000 --caches --l1i_size=32kB --l1d_size=64kB --l2 cache --l2_size=1MB
gem5 Simulator System.  http://gem5.org
gem5 is copyrighted software; use the --copyright option for details.

gem5 compiled Jul 15 2019 17:16:36
gem5 started Jul 16 2019 20:47:24
gem5 executing on server2, pid 32465
command line: build/X86/gem5.opt --stats-file=WBAR_lbm.txt ./configs/example/se_benchmark_spec06.py --benchmark=lbm --mem-type=NVMainMemory --nvmain-config=nvmain/Config/Hybrid_example.config --cpu-clock=2GHz --cpu-type=detailed -I 100000000 --caches --l1i_size=32kB --l1d_size=64kB --l2cache --l2_size=1MB

Selected SPEC_CPU2006 benchmark
--> lbm
['/home/server2/stx-gem/spec06/spec06-x86/benchspec/CPU2006/470.lbm/exe/lbm_base.amd64-m64-gcc42-nn', '20', 'reference.dat', '0', '1', '/home/server2/stx-gem/spec06/spec06-x86/benchspec/CPU2006/470.lbm/data/ref/input/100_100_130_ldc.of']
Global frequency set at 1000000000000 ticks per second
NVMainControl: Reading NVMain config file: nvmain/Config/Hybrid_example.config.
Config: Warning: Key BusWidth is not set. Using '-1' as the default. Please configure this value if this is wrong.
Config: Warning: Key tBURST is not set. Using '-1' as the default. Please configure this value if this is wrong.
Config: Warning: Key RATE is not set. Using '-1' as the default. Please configure this value if this is wrong.
0: system.remote_gdb.listener: listening for remote gdb #0 on port 7003
Creating hook CoinMigrator
Config: Warning: Key MigrationBufferReadLatency is not set. Using '4' as the default. Please configure this value if this is wrong.
NVMain: GlobalEventQueue: Added a memory subsystem running at 667MHz. My frequency is 2000MHz.
Config: Warning: Key DeviceWidth is not set. Using '8' as the default. Please configure this value if this is wrong.
Config: Warning: Key EIDD0 is not set. Using '85' as the default. Please configure this value if this is wrong.
Config: Warning: Key EIDD1 is not set. Using '54' as the default. Please configure this value if this is wrong.
Config: Warning: Key EIDD2P0 is not set. Using '30' as the default. Please configure this value if this is wrong.
Config: Warning: Key EIDD2P1 is not set. Using '30' as the default. Please configure this value if this is wrong.
Config: Warning: Key EIDD2N is not set. Using '37' as the default. Please configure this value if this is wrong.
Config: Warning: Key EIDD3P is not set. Using '35' as the default. Please configure this value if this is wrong.
Config: Warning: Key EIDD3N is not set. Using '40' as the default. Please configure this value if this is wrong.
Config: Warning: Key EIDD4R is not set. Using '160' as the default. Please configure this value if this is wrong.
Config: Warning: Key EIDD4W is not set. Using '165' as the default. Please configure this value if this is wrong.
Config: Warning: Key EIDD5B is not set. Using '200' as the default. Please configure this value if this is wrong.
Config: Warning: Key EIDD6 is not set. Using '12' as the default. Please configure this value if this is wrong.
Config: Warning: Key Eopenrd is not set. Using '1.08108' as the default. Please configure this value if this is wrong.
Config: Warning: Key Erd is not set. Using '3.4054' as the default. Please configure this value if this is wrong.
Config: Warning: Key Eref is not set. Using '38.5585' as the default. Please configure this value if this is wrong.
Config: Warning: Key Ewr is not set. Using '1.02375' as the default. Please configure this value if this is wrong.
Config: Warning: Key Ewrpb is not set. Using '0.00199951' as the default. Please configure this value if this is wrong.
Config: Warning: Key Eactstdby is not set. Using '0.09009' as the default. Please configure this value if this is wrong.
Config: Warning: Key Eprestdby is not set. Using '0.083333' as the default. Please configure this value if this is wrong.
Config: Warning: Key Epda is not set. Using '0' as the default. Please configure this value if this is wrong.
Config: Warning: Key Epdpf is not set. Using '0' as the default. Please configure this value if this is wrong.
Config: Warning: Key Epdps is not set. Using '0' as the default. Please configure this value if this is wrong.
Config: Warning: Key Voltage is not set. Using '1.5' as the default. Please configure this value if this is wrong.
Config: Warning: Key Rtt_nom is not set. Using '30' as the default. Please configure this value if this is wrong.
Config: Warning: Key Rtt_wr is not set. Using '60' as the default. Please configure this value if this is wrong.
Config: Warning: Key Rtt_cont is not set. Using '75' as the default. Please configure this value if this is wrong.
Config: Warning: Key VDDQ is not set. Using '1.5' as the default. Please configure this value if this is wrong.
Config: Warning: Key VSSQ is not set. Using '0' as the default. Please configure this value if this is wrong.
Config: Warning: Key RanksPerDIMM is not set. Using '1' as the default. Please configure this value if this is wrong.
Config: Warning: Key EnduranceModel is not set. Using 'NullModel' as the default. Please configure this value if this is wrong.
Config: Warning: Key DataEncoder is not set. Using 'default' as the default. Please configure this value if this is wrong.
Config: Warning: Key EnergyModel is not set. Using 'current' as the default. Please configure this value if this is wrong.
Config: Warning: Key UseLowPower is not set. Using 'true' as the default. Please configure this value if this is wrong.
Config: Warning: Key PowerDownMode is not set. Using 'FASTEXIT' as the default. Please configure this value if this is wrong.
Config: Warning: Key InitPD is not set. Using 'false' as the default. Please configure this value if this is wrong.
Config: Warning: Key PrintGraphs is not set. Using 'false' as the default. Please configure this value if this is wrong.
Config: Warning: Key PrintAllDevices is not set. Using 'false' as the default. Please configure this value if this is wrong.
Config: Warning: Key PrintConfig is not set. Using 'false' as the default. Please configure this value if this is wrong.
Config: Warning: Key RefreshRows is not set. Using '4' as the default. Please configure this value if this is wrong.
Config: Warning: Key UseRefresh is not set. Using 'true' as the default. Please configure this value if this is wrong.
Config: Warning: Key StaggerRefresh is not set. Using 'false' as the default. Please configure this value if this is wrong.
Config: Warning: Key UsePrecharge is not set. Using 'true' as the default. Please configure this value if this is wrong.
Config: Warning: Key OffChipLatency is not set. Using '10' as the default. Please configure this value if this is wrong.
Config: Warning: Key PeriodicStatsInterval is not set. Using '0' as the default. Please configure this value if this is wrong.
Config: Warning: Key RAW is not set. Using '4' as the default. Please configure this value if this is wrong.
Config: Warning: Key MATHeight is not set. Using '65536' as the default. Please configure this value if this is wrong.
Config: Warning: Key RBSize is not set. Using '32' as the default. Please configure this value if this is wrong.
Config: Warning: Key tRDPDEN is not set. Using '24' as the default. Please configure this value if this is wrong.
Config: Warning: Key tWRPDEN is not set. Using '19' as the default. Please configure this value if this is wrong.
Config: Warning: Key tWRAPDEN is not set. Using '22' as the default. Please configure this value if this is wrong.
Config: Warning: Key ClosePage is not set. Using '1' as the default. Please configure this value if this is wrong.
Config: Warning: Key ScheduleScheme is not set. Using '1' as the default. Please configure this value if this is wrong.
Config: Warning: Key HighWaterMark is not set. Using '32' as the default. Please configure this value if this is wrong.
Config: Warning: Key LowWaterMark is not set. Using '16' as the default. Please configure this value if this is wrong.
Config: Warning: Key BanksPerRefresh is not set. Using '8' as the default. Please configure this value if this is wrong.
Config: Warning: Key DelayedRefreshThreshold is not set. Using '1' as the default. Please configure this value if this is wrong.
Config: Warning: Key MemoryPrefetcher is not set. Using 'none' as the default. Please configure this value if this is wrong.
Config: Warning: Key PrefetchBufferSize is not set. Using '32' as the default. Please configure this value if this is wrong.
Config: Warning: Key MLCLevels is not set. Using '1' as the default. Please configure this value if this is wrong.
Config: Warning: Key WPVariance is not set. Using '1' as the default. Please configure this value if this is wrong.
Config: Warning: Key UniformWrites is not set. Using 'true' as the default. Please configure this value if this is wrong.
Config: Warning: Key WriteAllBits is not set. Using 'true' as the default. Please configure this value if this is wrong.
Config: Warning: Key Ereset is not set. Using '0.054331' as the default. Please configure this value if this is wrong.
Config: Warning: Key Eset is not set. Using '0.101581' as the default. Please configure this value if this is wrong.
Config: Warning: Key nWP00 is not set. Using '0' as the default. Please configure this value if this is wrong.
Config: Warning: Key nWP01 is not set. Using '7' as the default. Please configure this value if this is wrong.
Config: Warning: Key nWP10 is not set. Using '5' as the default. Please configure this value if this is wrong.
Config: Warning: Key nWP11 is not set. Using '1' as the default. Please configure this value if this is wrong.
Config: Warning: Key WPMaxVariance is not set. Using '2' as the default. Please configure this value if this is wrong.
Config: Warning: Key DeadlockTimer is not set. Using '10000000' as the default. Please configure this value if this is wrong.
Config: Warning: Key EnableDebug is not set. Using 'false' as the default. Please configure this value if this is wrong.
Config: Warning: Key WritePausing is not set. Using 'false' as the default. Please configure this value if this is wrong.
Config: Warning: Key PauseThreshold is not set. Using '0.4' as the default. Please configure this value if this is wrong.
Config: Warning: Key MaxCancellations is not set. Using '4' as the default. Please configure this value if this is wrong.
NVMain: the address mapping order is 
	Sub-Array 6
	Row 5
	Column 1
	Bank 3
	Rank 4
	Channel 2
Reading channel config file: nvmain/Config/Hybrid_DRAM_channel.config
Created a First Ready First Come First Serve memory controller!
Config: Warning: Key Rtt_nom is not set. Using '30' as the default. Please configure this value if this is wrong.
Config: Warning: Key Rtt_wr is not set. Using '60' as the default. Please configure this value if this is wrong.
Config: Warning: Key Rtt_cont is not set. Using '75' as the default. Please configure this value if this is wrong.
Config: Warning: Key VDDQ is not set. Using '1.5' as the default. Please configure this value if this is wrong.
Config: Warning: Key VSSQ is not set. Using '0' as the default. Please configure this value if this is wrong.
Config: Warning: Key RanksPerDIMM is not set. Using '1' as the default. Please configure this value if this is wrong.
Config: Warning: Key DataEncoder is not set. Using 'default' as the default. Please configure this value if this is wrong.
Config: Warning: Key PrintAllDevices is not set. Using 'false' as the default. Please configure this value if this is wrong.
Config: Warning: Key PrintConfig is not set. Using 'false' as the default. Please configure this value if this is wrong.
Config: Warning: Key StaggerRefresh is not set. Using 'false' as the default. Please configure this value if this is wrong.
Config: Warning: Key UsePrecharge is not set. Using 'true' as the default. Please configure this value if this is wrong.
Config: Warning: Key OffChipLatency is not set. Using '10' as the default. Please configure this value if this is wrong.
Config: Warning: Key RBSize is not set. Using '32' as the default. Please configure this value if this is wrong.
Config: Warning: Key MemoryPrefetcher is not set. Using 'none' as the default. Please configure this value if this is wrong.
Config: Warning: Key PrefetchBufferSize is not set. Using '32' as the default. Please configure this value if this is wrong.
Config: Warning: Key MLCLevels is not set. Using '1' as the default. Please configure this value if this is wrong.
Config: Warning: Key WPVariance is not set. Using '1' as the default. Please configure this value if this is wrong.
Config: Warning: Key UniformWrites is not set. Using 'true' as the default. Please configure this value if this is wrong.
Config: Warning: Key WriteAllBits is not set. Using 'true' as the default. Please configure this value if this is wrong.
Config: Warning: Key Ereset is not set. Using '0.054331' as the default. Please configure this value if this is wrong.
Config: Warning: Key Eset is not set. Using '0.101581' as the default. Please configure this value if this is wrong.
Config: Warning: Key nWP00 is not set. Using '0' as the default. Please configure this value if this is wrong.
Config: Warning: Key nWP01 is not set. Using '7' as the default. Please configure this value if this is wrong.
Config: Warning: Key nWP10 is not set. Using '5' as the default. Please configure this value if this is wrong.
Config: Warning: Key nWP11 is not set. Using '1' as the default. Please configure this value if this is wrong.
Config: Warning: Key WPMaxVariance is not set. Using '2' as the default. Please configure this value if this is wrong.
Config: Warning: Key DeadlockTimer is not set. Using '10000000' as the default. Please configure this value if this is wrong.
Config: Warning: Key EnableDebug is not set. Using 'false' as the default. Please configure this value if this is wrong.
Config: Warning: Key WritePausing is not set. Using 'false' as the default. Please configure this value if this is wrong.
Config: Warning: Key PauseThreshold is not set. Using '0.4' as the default. Please configure this value if this is wrong.
Config: Warning: Key MaxCancellations is not set. Using '4' as the default. Please configure this value if this is wrong.
Config: Warning: Key RankType is not set. Using '' as the default. Please configure this value if this is wrong.
Creating 8 banks in all 8 devices.
Config: Warning: Key BankType is not set. Using '' as the default. Please configure this value if this is wrong.
NVMain: the address mapping order is 
	Sub-Array 6
	Row 5
	Column 1
	Bank 3
	Rank 4
	Channel 2
defaultMemory.channel0.FRFCFS capacity is 1024 MB.
Creating 8 command queues.
Reading channel config file: nvmain/Config/Hybrid_NVM_channel.config
Created a First Ready First Come First Serve memory         controller with write queue!
Config: Warning: Key EIDD0 is not set. Using '85' as the default. Please configure this value if this is wrong.
Config: Warning: Key EIDD1 is not set. Using '54' as the default. Please configure this value if this is wrong.
Config: Warning: Key EIDD2P0 is not set. Using '30' as the default. Please configure this value if this is wrong.
Config: Warning: Key EIDD2P1 is not set. Using '30' as the default. Please configure this value if this is wrong.
Config: Warning: Key EIDD2N is not set. Using '37' as the default. Please configure this value if this is wrong.
Config: Warning: Key EIDD3P is not set. Using '35' as the default. Please configure this value if this is wrong.
Config: Warning: Key EIDD3N is not set. Using '40' as the default. Please configure this value if this is wrong.
Config: Warning: Key EIDD4R is not set. Using '160' as the default. Please configure this value if this is wrong.
Config: Warning: Key EIDD4W is not set. Using '165' as the default. Please configure this value if this is wrong.
Config: Warning: Key EIDD5B is not set. Using '200' as the default. Please configure this value if this is wrong.
Config: Warning: Key EIDD6 is not set. Using '12' as the default. Please configure this value if this is wrong.
Config: Warning: Key Eactstdby is not set. Using '0.09009' as the default. Please configure this value if this is wrong.
Config: Warning: Key Eprestdby is not set. Using '0.083333' as the default. Please configure this value if this is wrong.
Config: Warning: Key Rtt_nom is not set. Using '30' as the default. Please configure this value if this is wrong.
Config: Warning: Key Rtt_wr is not set. Using '60' as the default. Please configure this value if this is wrong.
Config: Warning: Key Rtt_cont is not set. Using '75' as the default. Please configure this value if this is wrong.
Config: Warning: Key VDDQ is not set. Using '1.5' as the default. Please configure this value if this is wrong.
Config: Warning: Key VSSQ is not set. Using '0' as the default. Please configure this value if this is wrong.
Config: Warning: Key RanksPerDIMM is not set. Using '1' as the default. Please configure this value if this is wrong.
Config: Warning: Key DataEncoder is not set. Using 'default' as the default. Please configure this value if this is wrong.
Config: Warning: Key UseLowPower is not set. Using 'true' as the default. Please configure this value if this is wrong.
Config: Warning: Key PowerDownMode is not set. Using 'FASTEXIT' as the default. Please configure this value if this is wrong.
Config: Warning: Key PrintAllDevices is not set. Using 'false' as the default. Please configure this value if this is wrong.
Config: Warning: Key PrintConfig is not set. Using 'false' as the default. Please configure this value if this is wrong.
Config: Warning: Key StaggerRefresh is not set. Using 'false' as the default. Please configure this value if this is wrong.
Config: Warning: Key UsePrecharge is not set. Using 'true' as the default. Please configure this value if this is wrong.
Config: Warning: Key OffChipLatency is not set. Using '10' as the default. Please configure this value if this is wrong.
Config: Warning: Key RBSize is not set. Using '32' as the default. Please configure this value if this is wrong.
Config: Warning: Key MemoryPrefetcher is not set. Using 'none' as the default. Please configure this value if this is wrong.
Config: Warning: Key PrefetchBufferSize is not set. Using '32' as the default. Please configure this value if this is wrong.
Config: Warning: Key MLCLevels is not set. Using '1' as the default. Please configure this value if this is wrong.
Config: Warning: Key WPVariance is not set. Using '1' as the default. Please configure this value if this is wrong.
Config: Warning: Key UniformWrites is not set. Using 'true' as the default. Please configure this value if this is wrong.
Config: Warning: Key WriteAllBits is not set. Using 'true' as the default. Please configure this value if this is wrong.
Config: Warning: Key Ereset is not set. Using '0.054331' as the default. Please configure this value if this is wrong.
Config: Warning: Key Eset is not set. Using '0.101581' as the default. Please configure this value if this is wrong.
Config: Warning: Key nWP00 is not set. Using '0' as the default. Please configure this value if this is wrong.
Config: Warning: Key nWP01 is not set. Using '7' as the default. Please configure this value if this is wrong.
Config: Warning: Key nWP10 is not set. Using '5' as the default. Please configure this value if this is wrong.
Config: Warning: Key nWP11 is not set. Using '1' as the default. Please configure this value if this is wrong.
Config: Warning: Key WPMaxVariance is not set. Using '2' as the default. Please configure this value if this is wrong.
Config: Warning: Key DeadlockTimer is not set. Using '10000000' as the default. Please configure this value if this is wrong.
Config: Warning: Key EnableDebug is not set. Using 'false' as the default. Please configure this value if this is wrong.
Config: Warning: Key WritePausing is not set. Using 'false' as the default. Please configure this value if this is wrong.
Config: Warning: Key PauseThreshold is not set. Using '0.4' as the default. Please configure this value if this is wrong.
Config: Warning: Key MaxCancellations is not set. Using '4' as the default. Please configure this value if this is wrong.
Config: Warning: Key RankType is not set. Using '' as the default. Please configure this value if this is wrong.
Creating 8 banks in all 8 devices.
Config: Warning: Key BankType is not set. Using '' as the default. Please configure this value if this is wrong.
NVMain: the address mapping order is 
	Sub-Array 6
	Row 5
	Column 1
	Bank 3
	Rank 4
	Channel 2
defaultMemory.channel1.FRFCFS-WQF capacity is 1024 MB.
Creating 8 command queues.
Reading channel config file: nvmain/Config/Hybrid_NVM_channel.config
Created a First Ready First Come First Serve memory         controller with write queue!
Config: Warning: Key EIDD0 is not set. Using '85' as the default. Please configure this value if this is wrong.
Config: Warning: Key EIDD1 is not set. Using '54' as the default. Please configure this value if this is wrong.
Config: Warning: Key EIDD2P0 is not set. Using '30' as the default. Please configure this value if this is wrong.
Config: Warning: Key EIDD2P1 is not set. Using '30' as the default. Please configure this value if this is wrong.
Config: Warning: Key EIDD2N is not set. Using '37' as the default. Please configure this value if this is wrong.
Config: Warning: Key EIDD3P is not set. Using '35' as the default. Please configure this value if this is wrong.
Config: Warning: Key EIDD3N is not set. Using '40' as the default. Please configure this value if this is wrong.
Config: Warning: Key EIDD4R is not set. Using '160' as the default. Please configure this value if this is wrong.
Config: Warning: Key EIDD4W is not set. Using '165' as the default. Please configure this value if this is wrong.
Config: Warning: Key EIDD5B is not set. Using '200' as the default. Please configure this value if this is wrong.
Config: Warning: Key EIDD6 is not set. Using '12' as the default. Please configure this value if this is wrong.
Config: Warning: Key Eactstdby is not set. Using '0.09009' as the default. Please configure this value if this is wrong.
Config: Warning: Key Eprestdby is not set. Using '0.083333' as the default. Please configure this value if this is wrong.
Config: Warning: Key Rtt_nom is not set. Using '30' as the default. Please configure this value if this is wrong.
Config: Warning: Key Rtt_wr is not set. Using '60' as the default. Please configure this value if this is wrong.
Config: Warning: Key Rtt_cont is not set. Using '75' as the default. Please configure this value if this is wrong.
Config: Warning: Key VDDQ is not set. Using '1.5' as the default. Please configure this value if this is wrong.
Config: Warning: Key VSSQ is not set. Using '0' as the default. Please configure this value if this is wrong.
Config: Warning: Key RanksPerDIMM is not set. Using '1' as the default. Please configure this value if this is wrong.
Config: Warning: Key DataEncoder is not set. Using 'default' as the default. Please configure this value if this is wrong.
Config: Warning: Key UseLowPower is not set. Using 'true' as the default. Please configure this value if this is wrong.
Config: Warning: Key PowerDownMode is not set. Using 'FASTEXIT' as the default. Please configure this value if this is wrong.
Config: Warning: Key PrintAllDevices is not set. Using 'false' as the default. Please configure this value if this is wrong.
Config: Warning: Key PrintConfig is not set. Using 'false' as the default. Please configure this value if this is wrong.
Config: Warning: Key StaggerRefresh is not set. Using 'false' as the default. Please configure this value if this is wrong.
Config: Warning: Key UsePrecharge is not set. Using 'true' as the default. Please configure this value if this is wrong.
Config: Warning: Key OffChipLatency is not set. Using '10' as the default. Please configure this value if this is wrong.
Config: Warning: Key RBSize is not set. Using '32' as the default. Please configure this value if this is wrong.
Config: Warning: Key MemoryPrefetcher is not set. Using 'none' as the default. Please configure this value if this is wrong.
Config: Warning: Key PrefetchBufferSize is not set. Using '32' as the default. Please configure this value if this is wrong.
Config: Warning: Key MLCLevels is not set. Using '1' as the default. Please configure this value if this is wrong.
Config: Warning: Key WPVariance is not set. Using '1' as the default. Please configure this value if this is wrong.
Config: Warning: Key UniformWrites is not set. Using 'true' as the default. Please configure this value if this is wrong.
Config: Warning: Key WriteAllBits is not set. Using 'true' as the default. Please configure this value if this is wrong.
Config: Warning: Key Ereset is not set. Using '0.054331' as the default. Please configure this value if this is wrong.
Config: Warning: Key Eset is not set. Using '0.101581' as the default. Please configure this value if this is wrong.
Config: Warning: Key nWP00 is not set. Using '0' as the default. Please configure this value if this is wrong.
Config: Warning: Key nWP01 is not set. Using '7' as the default. Please configure this value if this is wrong.
Config: Warning: Key nWP10 is not set. Using '5' as the default. Please configure this value if this is wrong.
Config: Warning: Key nWP11 is not set. Using '1' as the default. Please configure this value if this is wrong.
Config: Warning: Key WPMaxVariance is not set. Using '2' as the default. Please configure this value if this is wrong.
Config: Warning: Key DeadlockTimer is not set. Using '10000000' as the default. Please configure this value if this is wrong.
Config: Warning: Key EnableDebug is not set. Using 'false' as the default. Please configure this value if this is wrong.
Config: Warning: Key WritePausing is not set. Using 'false' as the default. Please configure this value if this is wrong.
Config: Warning: Key PauseThreshold is not set. Using '0.4' as the default. Please configure this value if this is wrong.
Config: Warning: Key MaxCancellations is not set. Using '4' as the default. Please configure this value if this is wrong.
Config: Warning: Key RankType is not set. Using '' as the default. Please configure this value if this is wrong.
Creating 8 banks in all 8 devices.
Config: Warning: Key BankType is not set. Using '' as the default. Please configure this value if this is wrong.
NVMain: the address mapping order is 
	Sub-Array 6
	Row 5
	Column 1
	Bank 3
	Rank 4
	Channel 2
defaultMemory.channel2.FRFCFS-WQF capacity is 1024 MB.
Creating 8 command queues.
Reading channel config file: nvmain/Config/Hybrid_NVM_channel.config
Created a First Ready First Come First Serve memory         controller with write queue!
Config: Warning: Key EIDD0 is not set. Using '85' as the default. Please configure this value if this is wrong.
Config: Warning: Key EIDD1 is not set. Using '54' as the default. Please configure this value if this is wrong.
Config: Warning: Key EIDD2P0 is not set. Using '30' as the default. Please configure this value if this is wrong.
Config: Warning: Key EIDD2P1 is not set. Using '30' as the default. Please configure this value if this is wrong.
Config: Warning: Key EIDD2N is not set. Using '37' as the default. Please configure this value if this is wrong.
Config: Warning: Key EIDD3P is not set. Using '35' as the default. Please configure this value if this is wrong.
Config: Warning: Key EIDD3N is not set. Using '40' as the default. Please configure this value if this is wrong.
Config: Warning: Key EIDD4R is not set. Using '160' as the default. Please configure this value if this is wrong.
Config: Warning: Key EIDD4W is not set. Using '165' as the default. Please configure this value if this is wrong.
Config: Warning: Key EIDD5B is not set. Using '200' as the default. Please configure this value if this is wrong.
Config: Warning: Key EIDD6 is not set. Using '12' as the default. Please configure this value if this is wrong.
Config: Warning: Key Eactstdby is not set. Using '0.09009' as the default. Please configure this value if this is wrong.
Config: Warning: Key Eprestdby is not set. Using '0.083333' as the default. Please configure this value if this is wrong.
Config: Warning: Key Rtt_nom is not set. Using '30' as the default. Please configure this value if this is wrong.
Config: Warning: Key Rtt_wr is not set. Using '60' as the default. Please configure this value if this is wrong.
Config: Warning: Key Rtt_cont is not set. Using '75' as the default. Please configure this value if this is wrong.
Config: Warning: Key VDDQ is not set. Using '1.5' as the default. Please configure this value if this is wrong.
Config: Warning: Key VSSQ is not set. Using '0' as the default. Please configure this value if this is wrong.
Config: Warning: Key RanksPerDIMM is not set. Using '1' as the default. Please configure this value if this is wrong.
Config: Warning: Key DataEncoder is not set. Using 'default' as the default. Please configure this value if this is wrong.
Config: Warning: Key UseLowPower is not set. Using 'true' as the default. Please configure this value if this is wrong.
Config: Warning: Key PowerDownMode is not set. Using 'FASTEXIT' as the default. Please configure this value if this is wrong.
Config: Warning: Key PrintAllDevices is not set. Using 'false' as the default. Please configure this value if this is wrong.
Config: Warning: Key PrintConfig is not set. Using 'false' as the default. Please configure this value if this is wrong.
Config: Warning: Key StaggerRefresh is not set. Using 'false' as the default. Please configure this value if this is wrong.
Config: Warning: Key UsePrecharge is not set. Using 'true' as the default. Please configure this value if this is wrong.
Config: Warning: Key OffChipLatency is not set. Using '10' as the default. Please configure this value if this is wrong.
Config: Warning: Key RBSize is not set. Using '32' as the default. Please configure this value if this is wrong.
Config: Warning: Key MemoryPrefetcher is not set. Using 'none' as the default. Please configure this value if this is wrong.
Config: Warning: Key PrefetchBufferSize is not set. Using '32' as the default. Please configure this value if this is wrong.
Config: Warning: Key MLCLevels is not set. Using '1' as the default. Please configure this value if this is wrong.
Config: Warning: Key WPVariance is not set. Using '1' as the default. Please configure this value if this is wrong.
Config: Warning: Key UniformWrites is not set. Using 'true' as the default. Please configure this value if this is wrong.
Config: Warning: Key WriteAllBits is not set. Using 'true' as the default. Please configure this value if this is wrong.
Config: Warning: Key Ereset is not set. Using '0.054331' as the default. Please configure this value if this is wrong.
Config: Warning: Key Eset is not set. Using '0.101581' as the default. Please configure this value if this is wrong.
Config: Warning: Key nWP00 is not set. Using '0' as the default. Please configure this value if this is wrong.
Config: Warning: Key nWP01 is not set. Using '7' as the default. Please configure this value if this is wrong.
Config: Warning: Key nWP10 is not set. Using '5' as the default. Please configure this value if this is wrong.
Config: Warning: Key nWP11 is not set. Using '1' as the default. Please configure this value if this is wrong.
Config: Warning: Key WPMaxVariance is not set. Using '2' as the default. Please configure this value if this is wrong.
Config: Warning: Key DeadlockTimer is not set. Using '10000000' as the default. Please configure this value if this is wrong.
Config: Warning: Key EnableDebug is not set. Using 'false' as the default. Please configure this value if this is wrong.
Config: Warning: Key WritePausing is not set. Using 'false' as the default. Please configure this value if this is wrong.
Config: Warning: Key PauseThreshold is not set. Using '0.4' as the default. Please configure this value if this is wrong.
Config: Warning: Key MaxCancellations is not set. Using '4' as the default. Please configure this value if this is wrong.
Config: Warning: Key RankType is not set. Using '' as the default. Please configure this value if this is wrong.
Creating 8 banks in all 8 devices.
Config: Warning: Key BankType is not set. Using '' as the default. Please configure this value if this is wrong.
NVMain: the address mapping order is 
	Sub-Array 6
	Row 5
	Column 1
	Bank 3
	Rank 4
	Channel 2
defaultMemory.channel3.FRFCFS-WQF capacity is 1024 MB.
Creating 8 command queues.
warn: ClockedObject: More than one power state change request encountered within the same simulation tick
**** REAL SIMULATION ****
info: Entering event queue @ 0.  Starting simulation...
warn: x86 cpuid family 0x0000: unimplemented function 7
warn: readlink() called on '/proc/self/exe' may yield unexpected results in various settings.
      Returning '/home/server2/stx-gem/spec06/spec06-x86/benchspec/CPU2006/470.lbm/exe/lbm_base.amd64-m64-gcc42-nn'
info: Increasing stack size by one page.
warn: ignoring syscall access(4931905, ...)
Exiting @ tick 1127322322000 because a thread reached the max instruction count
i0.CoinMigrator.migrationCount 145273
i0.CoinMigrator.queueWaits 0
i0.CoinMigrator.bufferedReads 25
i0.defaultMemory.decoder.migratedAccesses 10992132
i0.defaultMemory.channel0.FRFCFS.decoder.migratedAccesses 0
i0.defaultMemory.channel0.FRFCFS.channel0.decoder.migratedAccesses 0
i0.defaultMemory.channel0.FRFCFS.channel0.rank0.decoder.migratedAccesses 0
i0.defaultMemory.channel0.FRFCFS.channel0.rank0.bank0.decoder.migratedAccesses 0
i0.defaultMemory.channel0.FRFCFS.channel0.rank0.bank0.subarray0.subArrayEnergy 3.2767e+08mA*t
i0.defaultMemory.channel0.FRFCFS.channel0.rank0.bank0.subarray0.activeEnergy 4.81665e+06mA*t
i0.defaultMemory.channel0.FRFCFS.channel0.rank0.bank0.subarray0.burstEnergy 1.42114e+07mA*t
i0.defaultMemory.channel0.FRFCFS.channel0.rank0.bank0.subarray0.refreshEnergy 3.08642e+08mA*t
i0.defaultMemory.channel0.FRFCFS.channel0.rank0.bank0.subarray0.cancelledWrites 0
i0.defaultMemory.channel0.FRFCFS.channel0.rank0.bank0.subarray0.cancelledWriteTime 0
i0.defaultMemory.channel0.FRFCFS.channel0.rank0.bank0.subarray0.pausedWrites 0
i0.defaultMemory.channel0.FRFCFS.channel0.rank0.bank0.subarray0.averagePausesPerRequest 0
i0.defaultMemory.channel0.FRFCFS.channel0.rank0.bank0.subarray0.measuredPauses 177991
i0.defaultMemory.channel0.FRFCFS.channel0.rank0.bank0.subarray0.averagePausedRequestProgress 0
i0.defaultMemory.channel0.FRFCFS.channel0.rank0.bank0.subarray0.measuredProgresses 0
i0.defaultMemory.channel0.FRFCFS.channel0.rank0.bank0.subarray0.reads 51449
i0.defaultMemory.channel0.FRFCFS.channel0.rank0.bank0.subarray0.writes 177991
i0.defaultMemory.channel0.FRFCFS.channel0.rank0.bank0.subarray0.activates 44291
i0.defaultMemory.channel0.FRFCFS.channel0.rank0.bank0.subarray0.precharges 44291
i0.defaultMemory.channel0.FRFCFS.channel0.rank0.bank0.subarray0.refreshes 144225
i0.defaultMemory.channel0.FRFCFS.channel0.rank0.bank0.subarray0.worstCaseEndurance 18446744073709551615
i0.defaultMemory.channel0.FRFCFS.channel0.rank0.bank0.subarray0.averageEndurance 0
i0.defaultMemory.channel0.FRFCFS.channel0.rank0.bank0.subarray0.actWaits 28579
i0.defaultMemory.channel0.FRFCFS.channel0.rank0.bank0.subarray0.actWaitTotal 264401
i0.defaultMemory.channel0.FRFCFS.channel0.rank0.bank0.subarray0.actWaitAverage 9.25158
i0.defaultMemory.channel0.FRFCFS.channel0.rank0.bank0.subarray0.worstCaseWrite 0
i0.defaultMemory.channel0.FRFCFS.channel0.rank0.bank0.subarray0.num00Writes 0
i0.defaultMemory.channel0.FRFCFS.channel0.rank0.bank0.subarray0.num01Writes 0
i0.defaultMemory.channel0.FRFCFS.channel0.rank0.bank0.subarray0.num10Writes 0
i0.defaultMemory.channel0.FRFCFS.channel0.rank0.bank0.subarray0.num11Writes 0
i0.defaultMemory.channel0.FRFCFS.channel0.rank0.bank0.subarray0.averageWriteTime 0
i0.defaultMemory.channel0.FRFCFS.channel0.rank0.bank0.subarray0.measuredWriteTimes 177991
i0.defaultMemory.channel0.FRFCFS.channel0.rank0.bank0.subarray0.mlcTimingHisto {}
i0.defaultMemory.channel0.FRFCFS.channel0.rank0.bank0.subarray0.cancelCountHisto {0: 177990}
i0.defaultMemory.channel0.FRFCFS.channel0.rank0.bank0.subarray0.wpPauseHisto {}
i0.defaultMemory.channel0.FRFCFS.channel0.rank0.bank0.subarray0.wpCancelHisto {}
i0.defaultMemory.channel0.FRFCFS.channel0.rank0.bank0.bankEnergy 3.2767e+08mA*t
i0.defaultMemory.channel0.FRFCFS.channel0.rank0.bank0.activeEnergy 4.81665e+06mA*t
i0.defaultMemory.channel0.FRFCFS.channel0.rank0.bank0.burstEnergy 1.42114e+07mA*t
i0.defaultMemory.channel0.FRFCFS.channel0.rank0.bank0.refreshEnergy 3.08642e+08mA*t
i0.defaultMemory.channel0.FRFCFS.channel0.rank0.bank0.bankPower 0.00130871W
i0.defaultMemory.channel0.FRFCFS.channel0.rank0.bank0.activePower 1.92377e-05W
i0.defaultMemory.channel0.FRFCFS.channel0.rank0.bank0.burstPower 5.67604e-05W
i0.defaultMemory.channel0.FRFCFS.channel0.rank0.bank0.refreshPower 0.00123272W
i0.defaultMemory.channel0.FRFCFS.channel0.rank0.bank0.bandwidth 208.32MB/s
i0.defaultMemory.channel0.FRFCFS.channel0.rank0.bank0.dataCycles 917760
i0.defaultMemory.channel0.FRFCFS.channel0.rank0.bank0.powerCycles 375562534
i0.defaultMemory.channel0.FRFCFS.channel0.rank0.bank0.utilization 0.00244369
i0.defaultMemory.channel0.FRFCFS.channel0.rank0.bank0.reads 51449
i0.defaultMemory.channel0.FRFCFS.channel0.rank0.bank0.writes 177991
i0.defaultMemory.channel0.FRFCFS.channel0.rank0.bank0.activates 44291
i0.defaultMemory.channel0.FRFCFS.channel0.rank0.bank0.precharges 44291
i0.defaultMemory.channel0.FRFCFS.channel0.rank0.bank0.refreshes 144225
i0.defaultMemory.channel0.FRFCFS.channel0.rank0.bank0.activeCycles 38090683
i0.defaultMemory.channel0.FRFCFS.channel0.rank0.bank0.standbyCycles 337471851
i0.defaultMemory.channel0.FRFCFS.channel0.rank0.bank0.fastExitActiveCycles 0
i0.defaultMemory.channel0.FRFCFS.channel0.rank0.bank0.fastExitPrechargeCycles 0
i0.defaultMemory.channel0.FRFCFS.channel0.rank0.bank0.slowExitPrechargeCycles 0
i0.defaultMemory.channel0.FRFCFS.channel0.rank0.bank0.actWaits 0
i0.defaultMemory.channel0.FRFCFS.channel0.rank0.bank0.actWaitTotal 0
i0.defaultMemory.channel0.FRFCFS.channel0.rank0.bank0.actWaitAverage -nan
i0.defaultMemory.channel0.FRFCFS.channel0.rank0.bank0.averageEndurance 0
i0.defaultMemory.channel0.FRFCFS.channel0.rank0.bank0.worstCaseEndurance 18446744073709551615
i0.defaultMemory.channel0.FRFCFS.channel0.rank0.bank1.decoder.migratedAccesses 0
i0.defaultMemory.channel0.FRFCFS.channel0.rank0.bank1.subarray0.subArrayEnergy 3.2731e+08mA*t
i0.defaultMemory.channel0.FRFCFS.channel0.rank0.bank1.subarray0.activeEnergy 4.74792e+06mA*t
i0.defaultMemory.channel0.FRFCFS.channel0.rank0.bank1.subarray0.burstEnergy 1.39204e+07mA*t
i0.defaultMemory.channel0.FRFCFS.channel0.rank0.bank1.subarray0.refreshEnergy 3.08642e+08mA*t
i0.defaultMemory.channel0.FRFCFS.channel0.rank0.bank1.subarray0.cancelledWrites 0
i0.defaultMemory.channel0.FRFCFS.channel0.rank0.bank1.subarray0.cancelledWriteTime 0
i0.defaultMemory.channel0.FRFCFS.channel0.rank0.bank1.subarray0.pausedWrites 0
i0.defaultMemory.channel0.FRFCFS.channel0.rank0.bank1.subarray0.averagePausesPerRequest 0
i0.defaultMemory.channel0.FRFCFS.channel0.rank0.bank1.subarray0.measuredPauses 174402
i0.defaultMemory.channel0.FRFCFS.channel0.rank0.bank1.subarray0.averagePausedRequestProgress 0
i0.defaultMemory.channel0.FRFCFS.channel0.rank0.bank1.subarray0.measuredProgresses 0
i0.defaultMemory.channel0.FRFCFS.channel0.rank0.bank1.subarray0.reads 50338
i0.defaultMemory.channel0.FRFCFS.channel0.rank0.bank1.subarray0.writes 174402
i0.defaultMemory.channel0.FRFCFS.channel0.rank0.bank1.subarray0.activates 43659
i0.defaultMemory.channel0.FRFCFS.channel0.rank0.bank1.subarray0.precharges 43659
i0.defaultMemory.channel0.FRFCFS.channel0.rank0.bank1.subarray0.refreshes 144225
i0.defaultMemory.channel0.FRFCFS.channel0.rank0.bank1.subarray0.worstCaseEndurance 18446744073709551615
i0.defaultMemory.channel0.FRFCFS.channel0.rank0.bank1.subarray0.averageEndurance 0
i0.defaultMemory.channel0.FRFCFS.channel0.rank0.bank1.subarray0.actWaits 29124
i0.defaultMemory.channel0.FRFCFS.channel0.rank0.bank1.subarray0.actWaitTotal 336690
i0.defaultMemory.channel0.FRFCFS.channel0.rank0.bank1.subarray0.actWaitAverage 11.5606
i0.defaultMemory.channel0.FRFCFS.channel0.rank0.bank1.subarray0.worstCaseWrite 0
i0.defaultMemory.channel0.FRFCFS.channel0.rank0.bank1.subarray0.num00Writes 0
i0.defaultMemory.channel0.FRFCFS.channel0.rank0.bank1.subarray0.num01Writes 0
i0.defaultMemory.channel0.FRFCFS.channel0.rank0.bank1.subarray0.num10Writes 0
i0.defaultMemory.channel0.FRFCFS.channel0.rank0.bank1.subarray0.num11Writes 0
i0.defaultMemory.channel0.FRFCFS.channel0.rank0.bank1.subarray0.averageWriteTime 0
i0.defaultMemory.channel0.FRFCFS.channel0.rank0.bank1.subarray0.measuredWriteTimes 174402
i0.defaultMemory.channel0.FRFCFS.channel0.rank0.bank1.subarray0.mlcTimingHisto {}
i0.defaultMemory.channel0.FRFCFS.channel0.rank0.bank1.subarray0.cancelCountHisto {0: 174401}
i0.defaultMemory.channel0.FRFCFS.channel0.rank0.bank1.subarray0.wpPauseHisto {}
i0.defaultMemory.channel0.FRFCFS.channel0.rank0.bank1.subarray0.wpCancelHisto {}
i0.defaultMemory.channel0.FRFCFS.channel0.rank0.bank1.bankEnergy 3.2731e+08mA*t
i0.defaultMemory.channel0.FRFCFS.channel0.rank0.bank1.activeEnergy 4.74792e+06mA*t
i0.defaultMemory.channel0.FRFCFS.channel0.rank0.bank1.burstEnergy 1.39204e+07mA*t
i0.defaultMemory.channel0.FRFCFS.channel0.rank0.bank1.refreshEnergy 3.08642e+08mA*t
i0.defaultMemory.channel0.FRFCFS.channel0.rank0.bank1.bankPower 0.00130728W
i0.defaultMemory.channel0.FRFCFS.channel0.rank0.bank1.activePower 1.89632e-05W
i0.defaultMemory.channel0.FRFCFS.channel0.rank0.bank1.burstPower 5.55982e-05W
i0.defaultMemory.channel0.FRFCFS.channel0.rank0.bank1.refreshPower 0.00123272W
i0.defaultMemory.channel0.FRFCFS.channel0.rank0.bank1.bandwidth 204.053MB/s
i0.defaultMemory.channel0.FRFCFS.channel0.rank0.bank1.dataCycles 898960
i0.defaultMemory.channel0.FRFCFS.channel0.rank0.bank1.powerCycles 375562534
i0.defaultMemory.channel0.FRFCFS.channel0.rank0.bank1.utilization 0.00239364
i0.defaultMemory.channel0.FRFCFS.channel0.rank0.bank1.reads 50338
i0.defaultMemory.channel0.FRFCFS.channel0.rank0.bank1.writes 174402
i0.defaultMemory.channel0.FRFCFS.channel0.rank0.bank1.activates 43659
i0.defaultMemory.channel0.FRFCFS.channel0.rank0.bank1.precharges 43659
i0.defaultMemory.channel0.FRFCFS.channel0.rank0.bank1.refreshes 144225
i0.defaultMemory.channel0.FRFCFS.channel0.rank0.bank1.activeCycles 37793795
i0.defaultMemory.channel0.FRFCFS.channel0.rank0.bank1.standbyCycles 337768739
i0.defaultMemory.channel0.FRFCFS.channel0.rank0.bank1.fastExitActiveCycles 0
i0.defaultMemory.channel0.FRFCFS.channel0.rank0.bank1.fastExitPrechargeCycles 0
i0.defaultMemory.channel0.FRFCFS.channel0.rank0.bank1.slowExitPrechargeCycles 0
i0.defaultMemory.channel0.FRFCFS.channel0.rank0.bank1.actWaits 0
i0.defaultMemory.channel0.FRFCFS.channel0.rank0.bank1.actWaitTotal 0
i0.defaultMemory.channel0.FRFCFS.channel0.rank0.bank1.actWaitAverage -nan
i0.defaultMemory.channel0.FRFCFS.channel0.rank0.bank1.averageEndurance 0
i0.defaultMemory.channel0.FRFCFS.channel0.rank0.bank1.worstCaseEndurance 18446744073709551615
i0.defaultMemory.channel0.FRFCFS.channel0.rank0.bank2.decoder.migratedAccesses 0
i0.defaultMemory.channel0.FRFCFS.channel0.rank0.bank2.subarray0.subArrayEnergy 3.2784e+08mA*t
i0.defaultMemory.channel0.FRFCFS.channel0.rank0.bank2.subarray0.activeEnergy 4.97531e+06mA*t
i0.defaultMemory.channel0.FRFCFS.channel0.rank0.bank2.subarray0.burstEnergy 1.4223e+07mA*t
i0.defaultMemory.channel0.FRFCFS.channel0.rank0.bank2.subarray0.refreshEnergy 3.08642e+08mA*t
i0.defaultMemory.channel0.FRFCFS.channel0.rank0.bank2.subarray0.cancelledWrites 0
i0.defaultMemory.channel0.FRFCFS.channel0.rank0.bank2.subarray0.cancelledWriteTime 0
i0.defaultMemory.channel0.FRFCFS.channel0.rank0.bank2.subarray0.pausedWrites 0
i0.defaultMemory.channel0.FRFCFS.channel0.rank0.bank2.subarray0.averagePausesPerRequest 0
i0.defaultMemory.channel0.FRFCFS.channel0.rank0.bank2.subarray0.measuredPauses 178353
i0.defaultMemory.channel0.FRFCFS.channel0.rank0.bank2.subarray0.averagePausedRequestProgress 0
i0.defaultMemory.channel0.FRFCFS.channel0.rank0.bank2.subarray0.measuredProgresses 0
i0.defaultMemory.channel0.FRFCFS.channel0.rank0.bank2.subarray0.reads 51266
i0.defaultMemory.channel0.FRFCFS.channel0.rank0.bank2.subarray0.writes 178353
i0.defaultMemory.channel0.FRFCFS.channel0.rank0.bank2.subarray0.activates 45750
i0.defaultMemory.channel0.FRFCFS.channel0.rank0.bank2.subarray0.precharges 45750
i0.defaultMemory.channel0.FRFCFS.channel0.rank0.bank2.subarray0.refreshes 144225
i0.defaultMemory.channel0.FRFCFS.channel0.rank0.bank2.subarray0.worstCaseEndurance 18446744073709551615
i0.defaultMemory.channel0.FRFCFS.channel0.rank0.bank2.subarray0.averageEndurance 0
i0.defaultMemory.channel0.FRFCFS.channel0.rank0.bank2.subarray0.actWaits 31120
i0.defaultMemory.channel0.FRFCFS.channel0.rank0.bank2.subarray0.actWaitTotal 347253
i0.defaultMemory.channel0.FRFCFS.channel0.rank0.bank2.subarray0.actWaitAverage 11.1585
i0.defaultMemory.channel0.FRFCFS.channel0.rank0.bank2.subarray0.worstCaseWrite 0
i0.defaultMemory.channel0.FRFCFS.channel0.rank0.bank2.subarray0.num00Writes 0
i0.defaultMemory.channel0.FRFCFS.channel0.rank0.bank2.subarray0.num01Writes 0
i0.defaultMemory.channel0.FRFCFS.channel0.rank0.bank2.subarray0.num10Writes 0
i0.defaultMemory.channel0.FRFCFS.channel0.rank0.bank2.subarray0.num11Writes 0
i0.defaultMemory.channel0.FRFCFS.channel0.rank0.bank2.subarray0.averageWriteTime 0
i0.defaultMemory.channel0.FRFCFS.channel0.rank0.bank2.subarray0.measuredWriteTimes 178353
i0.defaultMemory.channel0.FRFCFS.channel0.rank0.bank2.subarray0.mlcTimingHisto {}
i0.defaultMemory.channel0.FRFCFS.channel0.rank0.bank2.subarray0.cancelCountHisto {0: 178352}
i0.defaultMemory.channel0.FRFCFS.channel0.rank0.bank2.subarray0.wpPauseHisto {}
i0.defaultMemory.channel0.FRFCFS.channel0.rank0.bank2.subarray0.wpCancelHisto {}
i0.defaultMemory.channel0.FRFCFS.channel0.rank0.bank2.bankEnergy 3.2784e+08mA*t
i0.defaultMemory.channel0.FRFCFS.channel0.rank0.bank2.activeEnergy 4.97531e+06mA*t
i0.defaultMemory.channel0.FRFCFS.channel0.rank0.bank2.burstEnergy 1.4223e+07mA*t
i0.defaultMemory.channel0.FRFCFS.channel0.rank0.bank2.refreshEnergy 3.08642e+08mA*t
i0.defaultMemory.channel0.FRFCFS.channel0.rank0.bank2.bankPower 0.0013094W
i0.defaultMemory.channel0.FRFCFS.channel0.rank0.bank2.activePower 1.98714e-05W
i0.defaultMemory.channel0.FRFCFS.channel0.rank0.bank2.burstPower 5.68069e-05W
i0.defaultMemory.channel0.FRFCFS.channel0.rank0.bank2.refreshPower 0.00123272W
i0.defaultMemory.channel0.FRFCFS.channel0.rank0.bank2.bandwidth 208.483MB/s
i0.defaultMemory.channel0.FRFCFS.channel0.rank0.bank2.dataCycles 918476
i0.defaultMemory.channel0.FRFCFS.channel0.rank0.bank2.powerCycles 375562534
i0.defaultMemory.channel0.FRFCFS.channel0.rank0.bank2.utilization 0.0024456
i0.defaultMemory.channel0.FRFCFS.channel0.rank0.bank2.reads 51266
i0.defaultMemory.channel0.FRFCFS.channel0.rank0.bank2.writes 178353
i0.defaultMemory.channel0.FRFCFS.channel0.rank0.bank2.activates 45750
i0.defaultMemory.channel0.FRFCFS.channel0.rank0.bank2.precharges 45750
i0.defaultMemory.channel0.FRFCFS.channel0.rank0.bank2.refreshes 144225
i0.defaultMemory.channel0.FRFCFS.channel0.rank0.bank2.activeCycles 37972201
i0.defaultMemory.channel0.FRFCFS.channel0.rank0.bank2.standbyCycles 337590333
i0.defaultMemory.channel0.FRFCFS.channel0.rank0.bank2.fastExitActiveCycles 0
i0.defaultMemory.channel0.FRFCFS.channel0.rank0.bank2.fastExitPrechargeCycles 0
i0.defaultMemory.channel0.FRFCFS.channel0.rank0.bank2.slowExitPrechargeCycles 0
i0.defaultMemory.channel0.FRFCFS.channel0.rank0.bank2.actWaits 0
i0.defaultMemory.channel0.FRFCFS.channel0.rank0.bank2.actWaitTotal 0
i0.defaultMemory.channel0.FRFCFS.channel0.rank0.bank2.actWaitAverage -nan
i0.defaultMemory.channel0.FRFCFS.channel0.rank0.bank2.averageEndurance 0
i0.defaultMemory.channel0.FRFCFS.channel0.rank0.bank2.worstCaseEndurance 18446744073709551615
i0.defaultMemory.channel0.FRFCFS.channel0.rank0.bank3.decoder.migratedAccesses 0
i0.defaultMemory.channel0.FRFCFS.channel0.rank0.bank3.subarray0.subArrayEnergy 3.27221e+08mA*t
i0.defaultMemory.channel0.FRFCFS.channel0.rank0.bank3.subarray0.activeEnergy 4.69517e+06mA*t
i0.defaultMemory.channel0.FRFCFS.channel0.rank0.bank3.subarray0.burstEnergy 1.38848e+07mA*t
i0.defaultMemory.channel0.FRFCFS.channel0.rank0.bank3.subarray0.refreshEnergy 3.08642e+08mA*t
i0.defaultMemory.channel0.FRFCFS.channel0.rank0.bank3.subarray0.cancelledWrites 0
i0.defaultMemory.channel0.FRFCFS.channel0.rank0.bank3.subarray0.cancelledWriteTime 0
i0.defaultMemory.channel0.FRFCFS.channel0.rank0.bank3.subarray0.pausedWrites 0
i0.defaultMemory.channel0.FRFCFS.channel0.rank0.bank3.subarray0.averagePausesPerRequest 0
i0.defaultMemory.channel0.FRFCFS.channel0.rank0.bank3.subarray0.measuredPauses 174271
i0.defaultMemory.channel0.FRFCFS.channel0.rank0.bank3.subarray0.averagePausedRequestProgress 0
i0.defaultMemory.channel0.FRFCFS.channel0.rank0.bank3.subarray0.measuredProgresses 0
i0.defaultMemory.channel0.FRFCFS.channel0.rank0.bank3.subarray0.reads 49881
i0.defaultMemory.channel0.FRFCFS.channel0.rank0.bank3.subarray0.writes 174271
i0.defaultMemory.channel0.FRFCFS.channel0.rank0.bank3.subarray0.activates 43174
i0.defaultMemory.channel0.FRFCFS.channel0.rank0.bank3.subarray0.precharges 43174
i0.defaultMemory.channel0.FRFCFS.channel0.rank0.bank3.subarray0.refreshes 144225
i0.defaultMemory.channel0.FRFCFS.channel0.rank0.bank3.subarray0.worstCaseEndurance 18446744073709551615
i0.defaultMemory.channel0.FRFCFS.channel0.rank0.bank3.subarray0.averageEndurance 0
i0.defaultMemory.channel0.FRFCFS.channel0.rank0.bank3.subarray0.actWaits 28556
i0.defaultMemory.channel0.FRFCFS.channel0.rank0.bank3.subarray0.actWaitTotal 327921
i0.defaultMemory.channel0.FRFCFS.channel0.rank0.bank3.subarray0.actWaitAverage 11.4834
i0.defaultMemory.channel0.FRFCFS.channel0.rank0.bank3.subarray0.worstCaseWrite 0
i0.defaultMemory.channel0.FRFCFS.channel0.rank0.bank3.subarray0.num00Writes 0
i0.defaultMemory.channel0.FRFCFS.channel0.rank0.bank3.subarray0.num01Writes 0
i0.defaultMemory.channel0.FRFCFS.channel0.rank0.bank3.subarray0.num10Writes 0
i0.defaultMemory.channel0.FRFCFS.channel0.rank0.bank3.subarray0.num11Writes 0
i0.defaultMemory.channel0.FRFCFS.channel0.rank0.bank3.subarray0.averageWriteTime 0
i0.defaultMemory.channel0.FRFCFS.channel0.rank0.bank3.subarray0.measuredWriteTimes 174271
i0.defaultMemory.channel0.FRFCFS.channel0.rank0.bank3.subarray0.mlcTimingHisto {}
i0.defaultMemory.channel0.FRFCFS.channel0.rank0.bank3.subarray0.cancelCountHisto {0: 174270}
i0.defaultMemory.channel0.FRFCFS.channel0.rank0.bank3.subarray0.wpPauseHisto {}
i0.defaultMemory.channel0.FRFCFS.channel0.rank0.bank3.subarray0.wpCancelHisto {}
i0.defaultMemory.channel0.FRFCFS.channel0.rank0.bank3.bankEnergy 3.27221e+08mA*t
i0.defaultMemory.channel0.FRFCFS.channel0.rank0.bank3.activeEnergy 4.69517e+06mA*t
i0.defaultMemory.channel0.FRFCFS.channel0.rank0.bank3.burstEnergy 1.38848e+07mA*t
i0.defaultMemory.channel0.FRFCFS.channel0.rank0.bank3.refreshEnergy 3.08642e+08mA*t
i0.defaultMemory.channel0.FRFCFS.channel0.rank0.bank3.bankPower 0.00130693W
i0.defaultMemory.channel0.FRFCFS.channel0.rank0.bank3.activePower 1.87526e-05W
i0.defaultMemory.channel0.FRFCFS.channel0.rank0.bank3.burstPower 5.5456e-05W
i0.defaultMemory.channel0.FRFCFS.channel0.rank0.bank3.refreshPower 0.00123272W
i0.defaultMemory.channel0.FRFCFS.channel0.rank0.bank3.bandwidth 203.519MB/s
i0.defaultMemory.channel0.FRFCFS.channel0.rank0.bank3.dataCycles 896608
i0.defaultMemory.channel0.FRFCFS.channel0.rank0.bank3.powerCycles 375562534
i0.defaultMemory.channel0.FRFCFS.channel0.rank0.bank3.utilization 0.00238737
i0.defaultMemory.channel0.FRFCFS.channel0.rank0.bank3.reads 49881
i0.defaultMemory.channel0.FRFCFS.channel0.rank0.bank3.writes 174271
i0.defaultMemory.channel0.FRFCFS.channel0.rank0.bank3.activates 43174
i0.defaultMemory.channel0.FRFCFS.channel0.rank0.bank3.precharges 43174
i0.defaultMemory.channel0.FRFCFS.channel0.rank0.bank3.refreshes 144225
i0.defaultMemory.channel0.FRFCFS.channel0.rank0.bank3.activeCycles 37793467
i0.defaultMemory.channel0.FRFCFS.channel0.rank0.bank3.standbyCycles 337769067
i0.defaultMemory.channel0.FRFCFS.channel0.rank0.bank3.fastExitActiveCycles 0
i0.defaultMemory.channel0.FRFCFS.channel0.rank0.bank3.fastExitPrechargeCycles 0
i0.defaultMemory.channel0.FRFCFS.channel0.rank0.bank3.slowExitPrechargeCycles 0
i0.defaultMemory.channel0.FRFCFS.channel0.rank0.bank3.actWaits 0
i0.defaultMemory.channel0.FRFCFS.channel0.rank0.bank3.actWaitTotal 0
i0.defaultMemory.channel0.FRFCFS.channel0.rank0.bank3.actWaitAverage -nan
i0.defaultMemory.channel0.FRFCFS.channel0.rank0.bank3.averageEndurance 0
i0.defaultMemory.channel0.FRFCFS.channel0.rank0.bank3.worstCaseEndurance 18446744073709551615
i0.defaultMemory.channel0.FRFCFS.channel0.rank0.bank4.decoder.migratedAccesses 0
i0.defaultMemory.channel0.FRFCFS.channel0.rank0.bank4.subarray0.subArrayEnergy 3.27508e+08mA*t
i0.defaultMemory.channel0.FRFCFS.channel0.rank0.bank4.subarray0.activeEnergy 4.86286e+06mA*t
i0.defaultMemory.channel0.FRFCFS.channel0.rank0.bank4.subarray0.burstEnergy 1.40034e+07mA*t
i0.defaultMemory.channel0.FRFCFS.channel0.rank0.bank4.subarray0.refreshEnergy 3.08642e+08mA*t
i0.defaultMemory.channel0.FRFCFS.channel0.rank0.bank4.subarray0.cancelledWrites 0
i0.defaultMemory.channel0.FRFCFS.channel0.rank0.bank4.subarray0.cancelledWriteTime 0
i0.defaultMemory.channel0.FRFCFS.channel0.rank0.bank4.subarray0.pausedWrites 0
i0.defaultMemory.channel0.FRFCFS.channel0.rank0.bank4.subarray0.averagePausesPerRequest 0
i0.defaultMemory.channel0.FRFCFS.channel0.rank0.bank4.subarray0.measuredPauses 176013
i0.defaultMemory.channel0.FRFCFS.channel0.rank0.bank4.subarray0.averagePausedRequestProgress 0
i0.defaultMemory.channel0.FRFCFS.channel0.rank0.bank4.subarray0.measuredProgresses 0
i0.defaultMemory.channel0.FRFCFS.channel0.rank0.bank4.subarray0.reads 50043
i0.defaultMemory.channel0.FRFCFS.channel0.rank0.bank4.subarray0.writes 176013
i0.defaultMemory.channel0.FRFCFS.channel0.rank0.bank4.subarray0.activates 44716
i0.defaultMemory.channel0.FRFCFS.channel0.rank0.bank4.subarray0.precharges 44716
i0.defaultMemory.channel0.FRFCFS.channel0.rank0.bank4.subarray0.refreshes 144225
i0.defaultMemory.channel0.FRFCFS.channel0.rank0.bank4.subarray0.worstCaseEndurance 18446744073709551615
i0.defaultMemory.channel0.FRFCFS.channel0.rank0.bank4.subarray0.averageEndurance 0
i0.defaultMemory.channel0.FRFCFS.channel0.rank0.bank4.subarray0.actWaits 30254
i0.defaultMemory.channel0.FRFCFS.channel0.rank0.bank4.subarray0.actWaitTotal 347327
i0.defaultMemory.channel0.FRFCFS.channel0.rank0.bank4.subarray0.actWaitAverage 11.4804
i0.defaultMemory.channel0.FRFCFS.channel0.rank0.bank4.subarray0.worstCaseWrite 0
i0.defaultMemory.channel0.FRFCFS.channel0.rank0.bank4.subarray0.num00Writes 0
i0.defaultMemory.channel0.FRFCFS.channel0.rank0.bank4.subarray0.num01Writes 0
i0.defaultMemory.channel0.FRFCFS.channel0.rank0.bank4.subarray0.num10Writes 0
i0.defaultMemory.channel0.FRFCFS.channel0.rank0.bank4.subarray0.num11Writes 0
i0.defaultMemory.channel0.FRFCFS.channel0.rank0.bank4.subarray0.averageWriteTime 0
i0.defaultMemory.channel0.FRFCFS.channel0.rank0.bank4.subarray0.measuredWriteTimes 176013
i0.defaultMemory.channel0.FRFCFS.channel0.rank0.bank4.subarray0.mlcTimingHisto {}
i0.defaultMemory.channel0.FRFCFS.channel0.rank0.bank4.subarray0.cancelCountHisto {0: 176012}
i0.defaultMemory.channel0.FRFCFS.channel0.rank0.bank4.subarray0.wpPauseHisto {}
i0.defaultMemory.channel0.FRFCFS.channel0.rank0.bank4.subarray0.wpCancelHisto {}
i0.defaultMemory.channel0.FRFCFS.channel0.rank0.bank4.bankEnergy 3.27508e+08mA*t
i0.defaultMemory.channel0.FRFCFS.channel0.rank0.bank4.activeEnergy 4.86286e+06mA*t
i0.defaultMemory.channel0.FRFCFS.channel0.rank0.bank4.burstEnergy 1.40034e+07mA*t
i0.defaultMemory.channel0.FRFCFS.channel0.rank0.bank4.refreshEnergy 3.08642e+08mA*t
i0.defaultMemory.channel0.FRFCFS.channel0.rank0.bank4.bankPower 0.00130807W
i0.defaultMemory.channel0.FRFCFS.channel0.rank0.bank4.activePower 1.94223e-05W
i0.defaultMemory.channel0.FRFCFS.channel0.rank0.bank4.burstPower 5.59297e-05W
i0.defaultMemory.channel0.FRFCFS.channel0.rank0.bank4.refreshPower 0.00123272W
i0.defaultMemory.channel0.FRFCFS.channel0.rank0.bank4.bandwidth 205.248MB/s
i0.defaultMemory.channel0.FRFCFS.channel0.rank0.bank4.dataCycles 904224
i0.defaultMemory.channel0.FRFCFS.channel0.rank0.bank4.powerCycles 375562534
i0.defaultMemory.channel0.FRFCFS.channel0.rank0.bank4.utilization 0.00240765
i0.defaultMemory.channel0.FRFCFS.channel0.rank0.bank4.reads 50043
i0.defaultMemory.channel0.FRFCFS.channel0.rank0.bank4.writes 176013
i0.defaultMemory.channel0.FRFCFS.channel0.rank0.bank4.activates 44716
i0.defaultMemory.channel0.FRFCFS.channel0.rank0.bank4.precharges 44716
i0.defaultMemory.channel0.FRFCFS.channel0.rank0.bank4.refreshes 144225
i0.defaultMemory.channel0.FRFCFS.channel0.rank0.bank4.activeCycles 37611709
i0.defaultMemory.channel0.FRFCFS.channel0.rank0.bank4.standbyCycles 337950825
i0.defaultMemory.channel0.FRFCFS.channel0.rank0.bank4.fastExitActiveCycles 0
i0.defaultMemory.channel0.FRFCFS.channel0.rank0.bank4.fastExitPrechargeCycles 0
i0.defaultMemory.channel0.FRFCFS.channel0.rank0.bank4.slowExitPrechargeCycles 0
i0.defaultMemory.channel0.FRFCFS.channel0.rank0.bank4.actWaits 0
i0.defaultMemory.channel0.FRFCFS.channel0.rank0.bank4.actWaitTotal 0
i0.defaultMemory.channel0.FRFCFS.channel0.rank0.bank4.actWaitAverage -nan
i0.defaultMemory.channel0.FRFCFS.channel0.rank0.bank4.averageEndurance 0
i0.defaultMemory.channel0.FRFCFS.channel0.rank0.bank4.worstCaseEndurance 18446744073709551615
i0.defaultMemory.channel0.FRFCFS.channel0.rank0.bank5.decoder.migratedAccesses 0
i0.defaultMemory.channel0.FRFCFS.channel0.rank0.bank5.subarray0.subArrayEnergy 3.26942e+08mA*t
i0.defaultMemory.channel0.FRFCFS.channel0.rank0.bank5.subarray0.activeEnergy 4.58098e+06mA*t
i0.defaultMemory.channel0.FRFCFS.channel0.rank0.bank5.subarray0.burstEnergy 1.37191e+07mA*t
i0.defaultMemory.channel0.FRFCFS.channel0.rank0.bank5.subarray0.refreshEnergy 3.08642e+08mA*t
i0.defaultMemory.channel0.FRFCFS.channel0.rank0.bank5.subarray0.cancelledWrites 0
i0.defaultMemory.channel0.FRFCFS.channel0.rank0.bank5.subarray0.cancelledWriteTime 0
i0.defaultMemory.channel0.FRFCFS.channel0.rank0.bank5.subarray0.pausedWrites 0
i0.defaultMemory.channel0.FRFCFS.channel0.rank0.bank5.subarray0.averagePausesPerRequest 0
i0.defaultMemory.channel0.FRFCFS.channel0.rank0.bank5.subarray0.measuredPauses 171181
i0.defaultMemory.channel0.FRFCFS.channel0.rank0.bank5.subarray0.averagePausedRequestProgress 0
i0.defaultMemory.channel0.FRFCFS.channel0.rank0.bank5.subarray0.measuredProgresses 0
i0.defaultMemory.channel0.FRFCFS.channel0.rank0.bank5.subarray0.reads 50338
i0.defaultMemory.channel0.FRFCFS.channel0.rank0.bank5.subarray0.writes 171181
i0.defaultMemory.channel0.FRFCFS.channel0.rank0.bank5.subarray0.activates 42124
i0.defaultMemory.channel0.FRFCFS.channel0.rank0.bank5.subarray0.precharges 42124
i0.defaultMemory.channel0.FRFCFS.channel0.rank0.bank5.subarray0.refreshes 144225
i0.defaultMemory.channel0.FRFCFS.channel0.rank0.bank5.subarray0.worstCaseEndurance 18446744073709551615
i0.defaultMemory.channel0.FRFCFS.channel0.rank0.bank5.subarray0.averageEndurance 0
i0.defaultMemory.channel0.FRFCFS.channel0.rank0.bank5.subarray0.actWaits 27772
i0.defaultMemory.channel0.FRFCFS.channel0.rank0.bank5.subarray0.actWaitTotal 338591
i0.defaultMemory.channel0.FRFCFS.channel0.rank0.bank5.subarray0.actWaitAverage 12.1918
i0.defaultMemory.channel0.FRFCFS.channel0.rank0.bank5.subarray0.worstCaseWrite 0
i0.defaultMemory.channel0.FRFCFS.channel0.rank0.bank5.subarray0.num00Writes 0
i0.defaultMemory.channel0.FRFCFS.channel0.rank0.bank5.subarray0.num01Writes 0
i0.defaultMemory.channel0.FRFCFS.channel0.rank0.bank5.subarray0.num10Writes 0
i0.defaultMemory.channel0.FRFCFS.channel0.rank0.bank5.subarray0.num11Writes 0
i0.defaultMemory.channel0.FRFCFS.channel0.rank0.bank5.subarray0.averageWriteTime 0
i0.defaultMemory.channel0.FRFCFS.channel0.rank0.bank5.subarray0.measuredWriteTimes 171181
i0.defaultMemory.channel0.FRFCFS.channel0.rank0.bank5.subarray0.mlcTimingHisto {}
i0.defaultMemory.channel0.FRFCFS.channel0.rank0.bank5.subarray0.cancelCountHisto {0: 171180}
i0.defaultMemory.channel0.FRFCFS.channel0.rank0.bank5.subarray0.wpPauseHisto {}
i0.defaultMemory.channel0.FRFCFS.channel0.rank0.bank5.subarray0.wpCancelHisto {}
i0.defaultMemory.channel0.FRFCFS.channel0.rank0.bank5.bankEnergy 3.26942e+08mA*t
i0.defaultMemory.channel0.FRFCFS.channel0.rank0.bank5.activeEnergy 4.58098e+06mA*t
i0.defaultMemory.channel0.FRFCFS.channel0.rank0.bank5.burstEnergy 1.37191e+07mA*t
i0.defaultMemory.channel0.FRFCFS.channel0.rank0.bank5.refreshEnergy 3.08642e+08mA*t
i0.defaultMemory.channel0.FRFCFS.channel0.rank0.bank5.bankPower 0.00130581W
i0.defaultMemory.channel0.FRFCFS.channel0.rank0.bank5.activePower 1.82965e-05W
i0.defaultMemory.channel0.FRFCFS.channel0.rank0.bank5.burstPower 5.47942e-05W
i0.defaultMemory.channel0.FRFCFS.channel0.rank0.bank5.refreshPower 0.00123272W
i0.defaultMemory.channel0.FRFCFS.channel0.rank0.bank5.bandwidth 201.128MB/s
i0.defaultMemory.channel0.FRFCFS.channel0.rank0.bank5.dataCycles 886076
i0.defaultMemory.channel0.FRFCFS.channel0.rank0.bank5.powerCycles 375562534
i0.defaultMemory.channel0.FRFCFS.channel0.rank0.bank5.utilization 0.00235933
i0.defaultMemory.channel0.FRFCFS.channel0.rank0.bank5.reads 50338
i0.defaultMemory.channel0.FRFCFS.channel0.rank0.bank5.writes 171181
i0.defaultMemory.channel0.FRFCFS.channel0.rank0.bank5.activates 42124
i0.defaultMemory.channel0.FRFCFS.channel0.rank0.bank5.precharges 42124
i0.defaultMemory.channel0.FRFCFS.channel0.rank0.bank5.refreshes 144225
i0.defaultMemory.channel0.FRFCFS.channel0.rank0.bank5.activeCycles 37444385
i0.defaultMemory.channel0.FRFCFS.channel0.rank0.bank5.standbyCycles 338118149
i0.defaultMemory.channel0.FRFCFS.channel0.rank0.bank5.fastExitActiveCycles 0
i0.defaultMemory.channel0.FRFCFS.channel0.rank0.bank5.fastExitPrechargeCycles 0
i0.defaultMemory.channel0.FRFCFS.channel0.rank0.bank5.slowExitPrechargeCycles 0
i0.defaultMemory.channel0.FRFCFS.channel0.rank0.bank5.actWaits 0
i0.defaultMemory.channel0.FRFCFS.channel0.rank0.bank5.actWaitTotal 0
i0.defaultMemory.channel0.FRFCFS.channel0.rank0.bank5.actWaitAverage -nan
i0.defaultMemory.channel0.FRFCFS.channel0.rank0.bank5.averageEndurance 0
i0.defaultMemory.channel0.FRFCFS.channel0.rank0.bank5.worstCaseEndurance 18446744073709551615
i0.defaultMemory.channel0.FRFCFS.channel0.rank0.bank6.decoder.migratedAccesses 0
i0.defaultMemory.channel0.FRFCFS.channel0.rank0.bank6.subarray0.subArrayEnergy 3.27959e+08mA*t
i0.defaultMemory.channel0.FRFCFS.channel0.rank0.bank6.subarray0.activeEnergy 4.99565e+06mA*t
i0.defaultMemory.channel0.FRFCFS.channel0.rank0.bank6.subarray0.burstEnergy 1.43222e+07mA*t
i0.defaultMemory.channel0.FRFCFS.channel0.rank0.bank6.subarray0.refreshEnergy 3.08642e+08mA*t
i0.defaultMemory.channel0.FRFCFS.channel0.rank0.bank6.subarray0.cancelledWrites 0
i0.defaultMemory.channel0.FRFCFS.channel0.rank0.bank6.subarray0.cancelledWriteTime 0
i0.defaultMemory.channel0.FRFCFS.channel0.rank0.bank6.subarray0.pausedWrites 0
i0.defaultMemory.channel0.FRFCFS.channel0.rank0.bank6.subarray0.averagePausesPerRequest 0
i0.defaultMemory.channel0.FRFCFS.channel0.rank0.bank6.subarray0.measuredPauses 178990
i0.defaultMemory.channel0.FRFCFS.channel0.rank0.bank6.subarray0.averagePausedRequestProgress 0
i0.defaultMemory.channel0.FRFCFS.channel0.rank0.bank6.subarray0.measuredProgresses 0
i0.defaultMemory.channel0.FRFCFS.channel0.rank0.bank6.subarray0.reads 52256
i0.defaultMemory.channel0.FRFCFS.channel0.rank0.bank6.subarray0.writes 178990
i0.defaultMemory.channel0.FRFCFS.channel0.rank0.bank6.subarray0.activates 45937
i0.defaultMemory.channel0.FRFCFS.channel0.rank0.bank6.subarray0.precharges 45937
i0.defaultMemory.channel0.FRFCFS.channel0.rank0.bank6.subarray0.refreshes 144225
i0.defaultMemory.channel0.FRFCFS.channel0.rank0.bank6.subarray0.worstCaseEndurance 18446744073709551615
i0.defaultMemory.channel0.FRFCFS.channel0.rank0.bank6.subarray0.averageEndurance 0
i0.defaultMemory.channel0.FRFCFS.channel0.rank0.bank6.subarray0.actWaits 31340
i0.defaultMemory.channel0.FRFCFS.channel0.rank0.bank6.subarray0.actWaitTotal 355054
i0.defaultMemory.channel0.FRFCFS.channel0.rank0.bank6.subarray0.actWaitAverage 11.3291
i0.defaultMemory.channel0.FRFCFS.channel0.rank0.bank6.subarray0.worstCaseWrite 0
i0.defaultMemory.channel0.FRFCFS.channel0.rank0.bank6.subarray0.num00Writes 0
i0.defaultMemory.channel0.FRFCFS.channel0.rank0.bank6.subarray0.num01Writes 0
i0.defaultMemory.channel0.FRFCFS.channel0.rank0.bank6.subarray0.num10Writes 0
i0.defaultMemory.channel0.FRFCFS.channel0.rank0.bank6.subarray0.num11Writes 0
i0.defaultMemory.channel0.FRFCFS.channel0.rank0.bank6.subarray0.averageWriteTime 0
i0.defaultMemory.channel0.FRFCFS.channel0.rank0.bank6.subarray0.measuredWriteTimes 178990
i0.defaultMemory.channel0.FRFCFS.channel0.rank0.bank6.subarray0.mlcTimingHisto {}
i0.defaultMemory.channel0.FRFCFS.channel0.rank0.bank6.subarray0.cancelCountHisto {0: 178989}
i0.defaultMemory.channel0.FRFCFS.channel0.rank0.bank6.subarray0.wpPauseHisto {}
i0.defaultMemory.channel0.FRFCFS.channel0.rank0.bank6.subarray0.wpCancelHisto {}
i0.defaultMemory.channel0.FRFCFS.channel0.rank0.bank6.bankEnergy 3.27959e+08mA*t
i0.defaultMemory.channel0.FRFCFS.channel0.rank0.bank6.activeEnergy 4.99565e+06mA*t
i0.defaultMemory.channel0.FRFCFS.channel0.rank0.bank6.burstEnergy 1.43222e+07mA*t
i0.defaultMemory.channel0.FRFCFS.channel0.rank0.bank6.refreshEnergy 3.08642e+08mA*t
i0.defaultMemory.channel0.FRFCFS.channel0.rank0.bank6.bankPower 0.00130987W
i0.defaultMemory.channel0.FRFCFS.channel0.rank0.bank6.activePower 1.99527e-05W
i0.defaultMemory.channel0.FRFCFS.channel0.rank0.bank6.burstPower 5.72031e-05W
i0.defaultMemory.channel0.FRFCFS.channel0.rank0.bank6.refreshPower 0.00123272W
i0.defaultMemory.channel0.FRFCFS.channel0.rank0.bank6.bandwidth 209.96MB/s
i0.defaultMemory.channel0.FRFCFS.channel0.rank0.bank6.dataCycles 924984
i0.defaultMemory.channel0.FRFCFS.channel0.rank0.bank6.powerCycles 375562534
i0.defaultMemory.channel0.FRFCFS.channel0.rank0.bank6.utilization 0.00246293
i0.defaultMemory.channel0.FRFCFS.channel0.rank0.bank6.reads 52256
i0.defaultMemory.channel0.FRFCFS.channel0.rank0.bank6.writes 178990
i0.defaultMemory.channel0.FRFCFS.channel0.rank0.bank6.activates 45937
i0.defaultMemory.channel0.FRFCFS.channel0.rank0.bank6.precharges 45937
i0.defaultMemory.channel0.FRFCFS.channel0.rank0.bank6.refreshes 144225
i0.defaultMemory.channel0.FRFCFS.channel0.rank0.bank6.activeCycles 38020111
i0.defaultMemory.channel0.FRFCFS.channel0.rank0.bank6.standbyCycles 337542423
i0.defaultMemory.channel0.FRFCFS.channel0.rank0.bank6.fastExitActiveCycles 0
i0.defaultMemory.channel0.FRFCFS.channel0.rank0.bank6.fastExitPrechargeCycles 0
i0.defaultMemory.channel0.FRFCFS.channel0.rank0.bank6.slowExitPrechargeCycles 0
i0.defaultMemory.channel0.FRFCFS.channel0.rank0.bank6.actWaits 0
i0.defaultMemory.channel0.FRFCFS.channel0.rank0.bank6.actWaitTotal 0
i0.defaultMemory.channel0.FRFCFS.channel0.rank0.bank6.actWaitAverage -nan
i0.defaultMemory.channel0.FRFCFS.channel0.rank0.bank6.averageEndurance 0
i0.defaultMemory.channel0.FRFCFS.channel0.rank0.bank6.worstCaseEndurance 18446744073709551615
i0.defaultMemory.channel0.FRFCFS.channel0.rank0.bank7.decoder.migratedAccesses 0
i0.defaultMemory.channel0.FRFCFS.channel0.rank0.bank7.subarray0.subArrayEnergy 3.27695e+08mA*t
i0.defaultMemory.channel0.FRFCFS.channel0.rank0.bank7.subarray0.activeEnergy 4.94671e+06mA*t
i0.defaultMemory.channel0.FRFCFS.channel0.rank0.bank7.subarray0.burstEnergy 1.41069e+07mA*t
i0.defaultMemory.channel0.FRFCFS.channel0.rank0.bank7.subarray0.refreshEnergy 3.08642e+08mA*t
i0.defaultMemory.channel0.FRFCFS.channel0.rank0.bank7.subarray0.cancelledWrites 0
i0.defaultMemory.channel0.FRFCFS.channel0.rank0.bank7.subarray0.cancelledWriteTime 0
i0.defaultMemory.channel0.FRFCFS.channel0.rank0.bank7.subarray0.pausedWrites 0
i0.defaultMemory.channel0.FRFCFS.channel0.rank0.bank7.subarray0.averagePausesPerRequest 0
i0.defaultMemory.channel0.FRFCFS.channel0.rank0.bank7.subarray0.measuredPauses 176283
i0.defaultMemory.channel0.FRFCFS.channel0.rank0.bank7.subarray0.averagePausedRequestProgress 0
i0.defaultMemory.channel0.FRFCFS.channel0.rank0.bank7.subarray0.measuredProgresses 0
i0.defaultMemory.channel0.FRFCFS.channel0.rank0.bank7.subarray0.reads 51487
i0.defaultMemory.channel0.FRFCFS.channel0.rank0.bank7.subarray0.writes 176283
i0.defaultMemory.channel0.FRFCFS.channel0.rank0.bank7.subarray0.activates 45487
i0.defaultMemory.channel0.FRFCFS.channel0.rank0.bank7.subarray0.precharges 45487
i0.defaultMemory.channel0.FRFCFS.channel0.rank0.bank7.subarray0.refreshes 144225
i0.defaultMemory.channel0.FRFCFS.channel0.rank0.bank7.subarray0.worstCaseEndurance 18446744073709551615
i0.defaultMemory.channel0.FRFCFS.channel0.rank0.bank7.subarray0.averageEndurance 0
i0.defaultMemory.channel0.FRFCFS.channel0.rank0.bank7.subarray0.actWaits 30887
i0.defaultMemory.channel0.FRFCFS.channel0.rank0.bank7.subarray0.actWaitTotal 354817
i0.defaultMemory.channel0.FRFCFS.channel0.rank0.bank7.subarray0.actWaitAverage 11.4876
i0.defaultMemory.channel0.FRFCFS.channel0.rank0.bank7.subarray0.worstCaseWrite 0
i0.defaultMemory.channel0.FRFCFS.channel0.rank0.bank7.subarray0.num00Writes 0
i0.defaultMemory.channel0.FRFCFS.channel0.rank0.bank7.subarray0.num01Writes 0
i0.defaultMemory.channel0.FRFCFS.channel0.rank0.bank7.subarray0.num10Writes 0
i0.defaultMemory.channel0.FRFCFS.channel0.rank0.bank7.subarray0.num11Writes 0
i0.defaultMemory.channel0.FRFCFS.channel0.rank0.bank7.subarray0.averageWriteTime 0
i0.defaultMemory.channel0.FRFCFS.channel0.rank0.bank7.subarray0.measuredWriteTimes 176283
i0.defaultMemory.channel0.FRFCFS.channel0.rank0.bank7.subarray0.mlcTimingHisto {}
i0.defaultMemory.channel0.FRFCFS.channel0.rank0.bank7.subarray0.cancelCountHisto {0: 176282}
i0.defaultMemory.channel0.FRFCFS.channel0.rank0.bank7.subarray0.wpPauseHisto {}
i0.defaultMemory.channel0.FRFCFS.channel0.rank0.bank7.subarray0.wpCancelHisto {}
i0.defaultMemory.channel0.FRFCFS.channel0.rank0.bank7.bankEnergy 3.27695e+08mA*t
i0.defaultMemory.channel0.FRFCFS.channel0.rank0.bank7.activeEnergy 4.94671e+06mA*t
i0.defaultMemory.channel0.FRFCFS.channel0.rank0.bank7.burstEnergy 1.41069e+07mA*t
i0.defaultMemory.channel0.FRFCFS.channel0.rank0.bank7.refreshEnergy 3.08642e+08mA*t
i0.defaultMemory.channel0.FRFCFS.channel0.rank0.bank7.bankPower 0.00130882W
i0.defaultMemory.channel0.FRFCFS.channel0.rank0.bank7.activePower 1.97572e-05W
i0.defaultMemory.channel0.FRFCFS.channel0.rank0.bank7.burstPower 5.63431e-05W
i0.defaultMemory.channel0.FRFCFS.channel0.rank0.bank7.refreshPower 0.00123272W
i0.defaultMemory.channel0.FRFCFS.channel0.rank0.bank7.bandwidth 206.804MB/s
i0.defaultMemory.channel0.FRFCFS.channel0.rank0.bank7.dataCycles 911080
i0.defaultMemory.channel0.FRFCFS.channel0.rank0.bank7.powerCycles 375562534
i0.defaultMemory.channel0.FRFCFS.channel0.rank0.bank7.utilization 0.00242591
i0.defaultMemory.channel0.FRFCFS.channel0.rank0.bank7.reads 51487
i0.defaultMemory.channel0.FRFCFS.channel0.rank0.bank7.writes 176283
i0.defaultMemory.channel0.FRFCFS.channel0.rank0.bank7.activates 45487
i0.defaultMemory.channel0.FRFCFS.channel0.rank0.bank7.precharges 45487
i0.defaultMemory.channel0.FRFCFS.channel0.rank0.bank7.refreshes 144225
i0.defaultMemory.channel0.FRFCFS.channel0.rank0.bank7.activeCycles 37896079
i0.defaultMemory.channel0.FRFCFS.channel0.rank0.bank7.standbyCycles 337666455
i0.defaultMemory.channel0.FRFCFS.channel0.rank0.bank7.fastExitActiveCycles 0
i0.defaultMemory.channel0.FRFCFS.channel0.rank0.bank7.fastExitPrechargeCycles 0
i0.defaultMemory.channel0.FRFCFS.channel0.rank0.bank7.slowExitPrechargeCycles 0
i0.defaultMemory.channel0.FRFCFS.channel0.rank0.bank7.actWaits 0
i0.defaultMemory.channel0.FRFCFS.channel0.rank0.bank7.actWaitTotal 0
i0.defaultMemory.channel0.FRFCFS.channel0.rank0.bank7.actWaitAverage -nan
i0.defaultMemory.channel0.FRFCFS.channel0.rank0.bank7.averageEndurance 0
i0.defaultMemory.channel0.FRFCFS.channel0.rank0.bank7.worstCaseEndurance 18446744073709551615
i0.defaultMemory.channel0.FRFCFS.channel0.rank0.totalEnergy 1.40209e+11mA*t
i0.defaultMemory.channel0.FRFCFS.channel0.rank0.backgroundEnergy 1.16628e+11mA*t
i0.defaultMemory.channel0.FRFCFS.channel0.rank0.activateEnergy 3.0897e+08mA*t
i0.defaultMemory.channel0.FRFCFS.channel0.rank0.burstEnergy 8.9913e+08mA*t
i0.defaultMemory.channel0.FRFCFS.channel0.rank0.refreshEnergy 1.97531e+10mA*t
i0.defaultMemory.channel0.FRFCFS.channel0.rank0.totalPower 0.141946W
i0.defaultMemory.channel0.FRFCFS.channel0.rank0.backgroundPower 0.0582265W
i0.defaultMemory.channel0.FRFCFS.channel0.rank0.activatePower 0.00123403W
i0.defaultMemory.channel0.FRFCFS.channel0.rank0.burstPower 0.00359113W
i0.defaultMemory.channel0.FRFCFS.channel0.rank0.refreshPower 0.0788939W
i0.defaultMemory.channel0.FRFCFS.channel0.rank0.reads 407058
i0.defaultMemory.channel0.FRFCFS.channel0.rank0.writes 1407484
i0.defaultMemory.channel0.FRFCFS.channel0.rank0.activeCycles 227550134
i0.defaultMemory.channel0.FRFCFS.channel0.rank0.standbyCycles 148012400
i0.defaultMemory.channel0.FRFCFS.channel0.rank0.fastExitActiveCycles 0
i0.defaultMemory.channel0.FRFCFS.channel0.rank0.fastExitPrechargeCycles 0
i0.defaultMemory.channel0.FRFCFS.channel0.rank0.slowExitCycles 0
i0.defaultMemory.channel0.FRFCFS.channel0.rank0.actWaits 16036
i0.defaultMemory.channel0.FRFCFS.channel0.rank0.actWaitTotal 52842
i0.defaultMemory.channel0.FRFCFS.channel0.rank0.actWaitAverage 3.29521
i0.defaultMemory.channel0.FRFCFS.channel0.rank0.rrdWaits 16037
i0.defaultMemory.channel0.FRFCFS.channel0.rank0.rrdWaitTotal 52846
i0.defaultMemory.channel0.FRFCFS.channel0.rank0.rrdWaitAverage 3.29525
i0.defaultMemory.channel0.FRFCFS.channel0.rank0.fawWaits 1
i0.defaultMemory.channel0.FRFCFS.channel0.rank0.fawWaitTotal 19
i0.defaultMemory.channel0.FRFCFS.channel0.rank0.fawWaitAverage 19
i0.defaultMemory.channel0.FRFCFS.mem_reads 407058
i0.defaultMemory.channel0.FRFCFS.mem_writes 1407484
i0.defaultMemory.channel0.FRFCFS.rb_hits 1459404
i0.defaultMemory.channel0.FRFCFS.rb_miss 355138
i0.defaultMemory.channel0.FRFCFS.starvation_precharges 8033
i0.defaultMemory.channel0.FRFCFS.averageLatency 31.2327
i0.defaultMemory.channel0.FRFCFS.averageQueueLatency 3.48196
i0.defaultMemory.channel0.FRFCFS.averageTotalLatency 34.7147
i0.defaultMemory.channel0.FRFCFS.measuredLatencies 1814542
i0.defaultMemory.channel0.FRFCFS.measuredQueueLatencies 1814542
i0.defaultMemory.channel0.FRFCFS.measuredTotalLatencies 1814542
i0.defaultMemory.channel0.FRFCFS.write_pauses 0
i0.defaultMemory.channel0.FRFCFS.simulation_cycles 375562534
i0.defaultMemory.channel0.FRFCFS.wakeupCount 4540170
i0.defaultMemory.channel1.FRFCFS-WQF.decoder.migratedAccesses 0
i0.defaultMemory.channel1.FRFCFS-WQF.channel1.decoder.migratedAccesses 0
i0.defaultMemory.channel1.FRFCFS-WQF.channel1.rank0.decoder.migratedAccesses 0
i0.defaultMemory.channel1.FRFCFS-WQF.channel1.rank0.bank0.decoder.migratedAccesses 0
i0.defaultMemory.channel1.FRFCFS-WQF.channel1.rank0.bank0.subarray0.subArrayEnergy 9.44731e+06nJ
i0.defaultMemory.channel1.FRFCFS-WQF.channel1.rank0.bank0.subarray0.activeEnergy 3160.06nJ
i0.defaultMemory.channel1.FRFCFS-WQF.channel1.rank0.bank0.subarray0.burstEnergy 381728nJ
i0.defaultMemory.channel1.FRFCFS-WQF.channel1.rank0.bank0.subarray0.writeEnergy 9.06242e+06nJ
i0.defaultMemory.channel1.FRFCFS-WQF.channel1.rank0.bank0.subarray0.refreshEnergy 0nJ
i0.defaultMemory.channel1.FRFCFS-WQF.channel1.rank0.bank0.subarray0.cancelledWrites 0
i0.defaultMemory.channel1.FRFCFS-WQF.channel1.rank0.bank0.subarray0.cancelledWriteTime 0
i0.defaultMemory.channel1.FRFCFS-WQF.channel1.rank0.bank0.subarray0.pausedWrites 0
i0.defaultMemory.channel1.FRFCFS-WQF.channel1.rank0.bank0.subarray0.averagePausesPerRequest 0
i0.defaultMemory.channel1.FRFCFS-WQF.channel1.rank0.bank0.subarray0.measuredPauses 226316
i0.defaultMemory.channel1.FRFCFS-WQF.channel1.rank0.bank0.subarray0.averagePausedRequestProgress 0
i0.defaultMemory.channel1.FRFCFS-WQF.channel1.rank0.bank0.subarray0.measuredProgresses 0
i0.defaultMemory.channel1.FRFCFS-WQF.channel1.rank0.bank0.subarray0.reads 264944
i0.defaultMemory.channel1.FRFCFS-WQF.channel1.rank0.bank0.subarray0.writes 226316
i0.defaultMemory.channel1.FRFCFS-WQF.channel1.rank0.bank0.subarray0.activates 38917
i0.defaultMemory.channel1.FRFCFS-WQF.channel1.rank0.bank0.subarray0.precharges 38916
i0.defaultMemory.channel1.FRFCFS-WQF.channel1.rank0.bank0.subarray0.refreshes 0
i0.defaultMemory.channel1.FRFCFS-WQF.channel1.rank0.bank0.subarray0.worstCaseEndurance 18446744073709551615
i0.defaultMemory.channel1.FRFCFS-WQF.channel1.rank0.bank0.subarray0.averageEndurance 0
i0.defaultMemory.channel1.FRFCFS-WQF.channel1.rank0.bank0.subarray0.actWaits 0
i0.defaultMemory.channel1.FRFCFS-WQF.channel1.rank0.bank0.subarray0.actWaitTotal 0
i0.defaultMemory.channel1.FRFCFS-WQF.channel1.rank0.bank0.subarray0.actWaitAverage -nan
i0.defaultMemory.channel1.FRFCFS-WQF.channel1.rank0.bank0.subarray0.worstCaseWrite 0
i0.defaultMemory.channel1.FRFCFS-WQF.channel1.rank0.bank0.subarray0.num00Writes 0
i0.defaultMemory.channel1.FRFCFS-WQF.channel1.rank0.bank0.subarray0.num01Writes 0
i0.defaultMemory.channel1.FRFCFS-WQF.channel1.rank0.bank0.subarray0.num10Writes 0
i0.defaultMemory.channel1.FRFCFS-WQF.channel1.rank0.bank0.subarray0.num11Writes 0
i0.defaultMemory.channel1.FRFCFS-WQF.channel1.rank0.bank0.subarray0.averageWriteTime 60
i0.defaultMemory.channel1.FRFCFS-WQF.channel1.rank0.bank0.subarray0.measuredWriteTimes 226316
i0.defaultMemory.channel1.FRFCFS-WQF.channel1.rank0.bank0.subarray0.mlcTimingHisto {}
i0.defaultMemory.channel1.FRFCFS-WQF.channel1.rank0.bank0.subarray0.cancelCountHisto {0: 226315}
i0.defaultMemory.channel1.FRFCFS-WQF.channel1.rank0.bank0.subarray0.wpPauseHisto {}
i0.defaultMemory.channel1.FRFCFS-WQF.channel1.rank0.bank0.subarray0.wpCancelHisto {}
i0.defaultMemory.channel1.FRFCFS-WQF.channel1.rank0.bank0.bankEnergy 9.44731e+06nJ
i0.defaultMemory.channel1.FRFCFS-WQF.channel1.rank0.bank0.activeEnergy 3160.06nJ
i0.defaultMemory.channel1.FRFCFS-WQF.channel1.rank0.bank0.burstEnergy 381728nJ
i0.defaultMemory.channel1.FRFCFS-WQF.channel1.rank0.bank0.refreshEnergy 0nJ
i0.defaultMemory.channel1.FRFCFS-WQF.channel1.rank0.bank0.bankPower 2.51551e+07W
i0.defaultMemory.channel1.FRFCFS-WQF.channel1.rank0.bank0.activePower 8414.21W
[...]
i0.defaultMemory.channel3.FRFCFS-WQF.channel3.rank0.bank5.subarray0.writeEnergy 9.23665e+06nJ
i0.defaultMemory.channel3.FRFCFS-WQF.channel3.rank0.bank5.subarray0.refreshEnergy 0nJ
i0.defaultMemory.channel3.FRFCFS-WQF.channel3.rank0.bank5.subarray0.cancelledWrites 0
i0.defaultMemory.channel3.FRFCFS-WQF.channel3.rank0.bank5.subarray0.cancelledWriteTime 0
i0.defaultMemory.channel3.FRFCFS-WQF.channel3.rank0.bank5.subarray0.pausedWrites 0
i0.defaultMemory.channel3.FRFCFS-WQF.channel3.rank0.bank5.subarray0.averagePausesPerRequest 0
i0.defaultMemory.channel3.FRFCFS-WQF.channel3.rank0.bank5.subarray0.measuredPauses 230667
i0.defaultMemory.channel3.FRFCFS-WQF.channel3.rank0.bank5.subarray0.averagePausedRequestProgress 0
i0.defaultMemory.channel3.FRFCFS-WQF.channel3.rank0.bank5.subarray0.measuredProgresses 0
i0.defaultMemory.channel3.FRFCFS-WQF.channel3.rank0.bank5.subarray0.reads 276297
i0.defaultMemory.channel3.FRFCFS-WQF.channel3.rank0.bank5.subarray0.writes 230667
i0.defaultMemory.channel3.FRFCFS-WQF.channel3.rank0.bank5.subarray0.activates 40255
i0.defaultMemory.channel3.FRFCFS-WQF.channel3.rank0.bank5.subarray0.precharges 40254
i0.defaultMemory.channel3.FRFCFS-WQF.channel3.rank0.bank5.subarray0.refreshes 0
i0.defaultMemory.channel3.FRFCFS-WQF.channel3.rank0.bank5.subarray0.worstCaseEndurance 18446744073709551615
i0.defaultMemory.channel3.FRFCFS-WQF.channel3.rank0.bank5.subarray0.averageEndurance 0
i0.defaultMemory.channel3.FRFCFS-WQF.channel3.rank0.bank5.subarray0.actWaits 0
i0.defaultMemory.channel3.FRFCFS-WQF.channel3.rank0.bank5.subarray0.actWaitTotal 0
i0.defaultMemory.channel3.FRFCFS-WQF.channel3.rank0.bank5.subarray0.actWaitAverage -nan
i0.defaultMemory.channel3.FRFCFS-WQF.channel3.rank0.bank5.subarray0.worstCaseWrite 0
i0.defaultMemory.channel3.FRFCFS-WQF.channel3.rank0.bank5.subarray0.num00Writes 0
i0.defaultMemory.channel3.FRFCFS-WQF.channel3.rank0.bank5.subarray0.num01Writes 0
i0.defaultMemory.channel3.FRFCFS-WQF.channel3.rank0.bank5.subarray0.num10Writes 0
i0.defaultMemory.channel3.FRFCFS-WQF.channel3.rank0.bank5.subarray0.num11Writes 0
i0.defaultMemory.channel3.FRFCFS-WQF.channel3.rank0.bank5.subarray0.averageWriteTime 60
i0.defaultMemory.channel3.FRFCFS-WQF.channel3.rank0.bank5.subarray0.measuredWriteTimes 230667
i0.defaultMemory.channel3.FRFCFS-WQF.channel3.rank0.bank5.subarray0.mlcTimingHisto {}
i0.defaultMemory.channel3.FRFCFS-WQF.channel3.rank0.bank5.subarray0.cancelCountHisto {0: 230666}
i0.defaultMemory.channel3.FRFCFS-WQF.channel3.rank0.bank5.subarray0.wpPauseHisto {}
i0.defaultMemory.channel3.FRFCFS-WQF.channel3.rank0.bank5.subarray0.wpCancelHisto {}
i0.defaultMemory.channel3.FRFCFS-WQF.channel3.rank0.bank5.bankEnergy 9.62899e+06nJ
i0.defaultMemory.channel3.FRFCFS-WQF.channel3.rank0.bank5.activeEnergy 3268.71nJ
i0.defaultMemory.channel3.FRFCFS-WQF.channel3.rank0.bank5.burstEnergy 389077nJ
i0.defaultMemory.channel3.FRFCFS-WQF.channel3.rank0.bank5.refreshEnergy 0nJ
i0.defaultMemory.channel3.FRFCFS-WQF.channel3.rank0.bank5.bankPower 2.56389e+07W
i0.defaultMemory.channel3.FRFCFS-WQF.channel3.rank0.bank5.activePower 8703.49W
i0.defaultMemory.channel3.FRFCFS-WQF.channel3.rank0.bank5.burstPower 1.03598e+06W
i0.defaultMemory.channel3.FRFCFS-WQF.channel3.rank0.bank5.refreshPower 0W
i0.defaultMemory.channel3.FRFCFS-WQF.channel3.rank0.bank5.bandwidth 460.989MB/s
i0.defaultMemory.channel3.FRFCFS-WQF.channel3.rank0.bank5.dataCycles 2027856
i0.defaultMemory.channel3.FRFCFS-WQF.channel3.rank0.bank5.powerCycles 375562534
i0.defaultMemory.channel3.FRFCFS-WQF.channel3.rank0.bank5.utilization 0.00539952
i0.defaultMemory.channel3.FRFCFS-WQF.channel3.rank0.bank5.reads 276297
i0.defaultMemory.channel3.FRFCFS-WQF.channel3.rank0.bank5.writes 230667
i0.defaultMemory.channel3.FRFCFS-WQF.channel3.rank0.bank5.activates 40255
i0.defaultMemory.channel3.FRFCFS-WQF.channel3.rank0.bank5.precharges 40254
i0.defaultMemory.channel3.FRFCFS-WQF.channel3.rank0.bank5.refreshes 0
i0.defaultMemory.channel3.FRFCFS-WQF.channel3.rank0.bank5.activeCycles 373575214
i0.defaultMemory.channel3.FRFCFS-WQF.channel3.rank0.bank5.standbyCycles 1987320
i0.defaultMemory.channel3.FRFCFS-WQF.channel3.rank0.bank5.fastExitActiveCycles 0
i0.defaultMemory.channel3.FRFCFS-WQF.channel3.rank0.bank5.fastExitPrechargeCycles 0
i0.defaultMemory.channel3.FRFCFS-WQF.channel3.rank0.bank5.slowExitPrechargeCycles 0
i0.defaultMemory.channel3.FRFCFS-WQF.channel3.rank0.bank5.actWaits 0
i0.defaultMemory.channel3.FRFCFS-WQF.channel3.rank0.bank5.actWaitTotal 0
i0.defaultMemory.channel3.FRFCFS-WQF.channel3.rank0.bank5.actWaitAverage -nan
i0.defaultMemory.channel3.FRFCFS-WQF.channel3.rank0.bank5.averageEndurance 0
i0.defaultMemory.channel3.FRFCFS-WQF.channel3.rank0.bank5.worstCaseEndurance 18446744073709551615
i0.defaultMemory.channel3.FRFCFS-WQF.channel3.rank0.bank6.decoder.migratedAccesses 0
i0.defaultMemory.channel3.FRFCFS-WQF.channel3.rank0.bank6.subarray0.subArrayEnergy 9.53615e+06nJ
i0.defaultMemory.channel3.FRFCFS-WQF.channel3.rank0.bank6.subarray0.activeEnergy 3241.26nJ
i0.defaultMemory.channel3.FRFCFS-WQF.channel3.rank0.bank6.subarray0.burstEnergy 385333nJ
i0.defaultMemory.channel3.FRFCFS-WQF.channel3.rank0.bank6.subarray0.writeEnergy 9.14757e+06nJ
i0.defaultMemory.channel3.FRFCFS-WQF.channel3.rank0.bank6.subarray0.refreshEnergy 0nJ
i0.defaultMemory.channel3.FRFCFS-WQF.channel3.rank0.bank6.subarray0.cancelledWrites 0
i0.defaultMemory.channel3.FRFCFS-WQF.channel3.rank0.bank6.subarray0.cancelledWriteTime 0
i0.defaultMemory.channel3.FRFCFS-WQF.channel3.rank0.bank6.subarray0.pausedWrites 0
i0.defaultMemory.channel3.FRFCFS-WQF.channel3.rank0.bank6.subarray0.averagePausesPerRequest 0
i0.defaultMemory.channel3.FRFCFS-WQF.channel3.rank0.bank6.subarray0.measuredPauses 228446
i0.defaultMemory.channel3.FRFCFS-WQF.channel3.rank0.bank6.subarray0.averagePausedRequestProgress 0
i0.defaultMemory.channel3.FRFCFS-WQF.channel3.rank0.bank6.subarray0.measuredProgresses 0
i0.defaultMemory.channel3.FRFCFS-WQF.channel3.rank0.bank6.subarray0.reads 274876
i0.defaultMemory.channel3.FRFCFS-WQF.channel3.rank0.bank6.subarray0.writes 228446
i0.defaultMemory.channel3.FRFCFS-WQF.channel3.rank0.bank6.subarray0.activates 39917
i0.defaultMemory.channel3.FRFCFS-WQF.channel3.rank0.bank6.subarray0.precharges 39916
i0.defaultMemory.channel3.FRFCFS-WQF.channel3.rank0.bank6.subarray0.refreshes 0
i0.defaultMemory.channel3.FRFCFS-WQF.channel3.rank0.bank6.subarray0.worstCaseEndurance 18446744073709551615
i0.defaultMemory.channel3.FRFCFS-WQF.channel3.rank0.bank6.subarray0.averageEndurance 0
i0.defaultMemory.channel3.FRFCFS-WQF.channel3.rank0.bank6.subarray0.actWaits 0
i0.defaultMemory.channel3.FRFCFS-WQF.channel3.rank0.bank6.subarray0.actWaitTotal 0
i0.defaultMemory.channel3.FRFCFS-WQF.channel3.rank0.bank6.subarray0.actWaitAverage -nan
i0.defaultMemory.channel3.FRFCFS-WQF.channel3.rank0.bank6.subarray0.worstCaseWrite 0
i0.defaultMemory.channel3.FRFCFS-WQF.channel3.rank0.bank6.subarray0.num00Writes 0
i0.defaultMemory.channel3.FRFCFS-WQF.channel3.rank0.bank6.subarray0.num01Writes 0
i0.defaultMemory.channel3.FRFCFS-WQF.channel3.rank0.bank6.subarray0.num10Writes 0
i0.defaultMemory.channel3.FRFCFS-WQF.channel3.rank0.bank6.subarray0.num11Writes 0
i0.defaultMemory.channel3.FRFCFS-WQF.channel3.rank0.bank6.subarray0.averageWriteTime 60
i0.defaultMemory.channel3.FRFCFS-WQF.channel3.rank0.bank6.subarray0.measuredWriteTimes 228446
i0.defaultMemory.channel3.FRFCFS-WQF.channel3.rank0.bank6.subarray0.mlcTimingHisto {}
i0.defaultMemory.channel3.FRFCFS-WQF.channel3.rank0.bank6.subarray0.cancelCountHisto {0: 228445}
i0.defaultMemory.channel3.FRFCFS-WQF.channel3.rank0.bank6.subarray0.wpPauseHisto {}
i0.defaultMemory.channel3.FRFCFS-WQF.channel3.rank0.bank6.subarray0.wpCancelHisto {}
i0.defaultMemory.channel3.FRFCFS-WQF.channel3.rank0.bank6.bankEnergy 9.53615e+06nJ
i0.defaultMemory.channel3.FRFCFS-WQF.channel3.rank0.bank6.activeEnergy 3241.26nJ
i0.defaultMemory.channel3.FRFCFS-WQF.channel3.rank0.bank6.burstEnergy 385333nJ
i0.defaultMemory.channel3.FRFCFS-WQF.channel3.rank0.bank6.refreshEnergy 0nJ
i0.defaultMemory.channel3.FRFCFS-WQF.channel3.rank0.bank6.bankPower 2.53916e+07W
i0.defaultMemory.channel3.FRFCFS-WQF.channel3.rank0.bank6.activePower 8630.41W
i0.defaultMemory.channel3.FRFCFS-WQF.channel3.rank0.bank6.burstPower 1.02601e+06W
i0.defaultMemory.channel3.FRFCFS-WQF.channel3.rank0.bank6.refreshPower 0W
i0.defaultMemory.channel3.FRFCFS-WQF.channel3.rank0.bank6.bandwidth 457.677MB/s
i0.defaultMemory.channel3.FRFCFS-WQF.channel3.rank0.bank6.dataCycles 2013288
i0.defaultMemory.channel3.FRFCFS-WQF.channel3.rank0.bank6.powerCycles 375562534
i0.defaultMemory.channel3.FRFCFS-WQF.channel3.rank0.bank6.utilization 0.00536073
i0.defaultMemory.channel3.FRFCFS-WQF.channel3.rank0.bank6.reads 274876
i0.defaultMemory.channel3.FRFCFS-WQF.channel3.rank0.bank6.writes 228446
i0.defaultMemory.channel3.FRFCFS-WQF.channel3.rank0.bank6.activates 39917
i0.defaultMemory.channel3.FRFCFS-WQF.channel3.rank0.bank6.precharges 39916
i0.defaultMemory.channel3.FRFCFS-WQF.channel3.rank0.bank6.refreshes 0
i0.defaultMemory.channel3.FRFCFS-WQF.channel3.rank0.bank6.activeCycles 373657974
i0.defaultMemory.channel3.FRFCFS-WQF.channel3.rank0.bank6.standbyCycles 1904560
i0.defaultMemory.channel3.FRFCFS-WQF.channel3.rank0.bank6.fastExitActiveCycles 0
i0.defaultMemory.channel3.FRFCFS-WQF.channel3.rank0.bank6.fastExitPrechargeCycles 0
i0.defaultMemory.channel3.FRFCFS-WQF.channel3.rank0.bank6.slowExitPrechargeCycles 0
i0.defaultMemory.channel3.FRFCFS-WQF.channel3.rank0.bank6.actWaits 0
i0.defaultMemory.channel3.FRFCFS-WQF.channel3.rank0.bank6.actWaitTotal 0
i0.defaultMemory.channel3.FRFCFS-WQF.channel3.rank0.bank6.actWaitAverage -nan
i0.defaultMemory.channel3.FRFCFS-WQF.channel3.rank0.bank6.averageEndurance 0
i0.defaultMemory.channel3.FRFCFS-WQF.channel3.rank0.bank6.worstCaseEndurance 18446744073709551615
i0.defaultMemory.channel3.FRFCFS-WQF.channel3.rank0.bank7.decoder.migratedAccesses 0
i0.defaultMemory.channel3.FRFCFS-WQF.channel3.rank0.bank7.subarray0.subArrayEnergy 9.5242e+06nJ
i0.defaultMemory.channel3.FRFCFS-WQF.channel3.rank0.bank7.subarray0.activeEnergy 3255.06nJ
i0.defaultMemory.channel3.FRFCFS-WQF.channel3.rank0.bank7.subarray0.burstEnergy 384854nJ
i0.defaultMemory.channel3.FRFCFS-WQF.channel3.rank0.bank7.subarray0.writeEnergy 9.13609e+06nJ
i0.defaultMemory.channel3.FRFCFS-WQF.channel3.rank0.bank7.subarray0.refreshEnergy 0nJ
i0.defaultMemory.channel3.FRFCFS-WQF.channel3.rank0.bank7.subarray0.cancelledWrites 0
i0.defaultMemory.channel3.FRFCFS-WQF.channel3.rank0.bank7.subarray0.cancelledWriteTime 0
i0.defaultMemory.channel3.FRFCFS-WQF.channel3.rank0.bank7.subarray0.pausedWrites 0
i0.defaultMemory.channel3.FRFCFS-WQF.channel3.rank0.bank7.subarray0.averagePausesPerRequest 0
i0.defaultMemory.channel3.FRFCFS-WQF.channel3.rank0.bank7.subarray0.measuredPauses 228163
i0.defaultMemory.channel3.FRFCFS-WQF.channel3.rank0.bank7.subarray0.averagePausedRequestProgress 0
i0.defaultMemory.channel3.FRFCFS-WQF.channel3.rank0.bank7.subarray0.measuredProgresses 0
i0.defaultMemory.channel3.FRFCFS-WQF.channel3.rank0.bank7.subarray0.reads 273768
i0.defaultMemory.channel3.FRFCFS-WQF.channel3.rank0.bank7.subarray0.writes 228163
i0.defaultMemory.channel3.FRFCFS-WQF.channel3.rank0.bank7.subarray0.activates 40087
i0.defaultMemory.channel3.FRFCFS-WQF.channel3.rank0.bank7.subarray0.precharges 40086
i0.defaultMemory.channel3.FRFCFS-WQF.channel3.rank0.bank7.subarray0.refreshes 0
i0.defaultMemory.channel3.FRFCFS-WQF.channel3.rank0.bank7.subarray0.worstCaseEndurance 18446744073709551615
i0.defaultMemory.channel3.FRFCFS-WQF.channel3.rank0.bank7.subarray0.averageEndurance 0
i0.defaultMemory.channel3.FRFCFS-WQF.channel3.rank0.bank7.subarray0.actWaits 0
i0.defaultMemory.channel3.FRFCFS-WQF.channel3.rank0.bank7.subarray0.actWaitTotal 0
i0.defaultMemory.channel3.FRFCFS-WQF.channel3.rank0.bank7.subarray0.actWaitAverage -nan
i0.defaultMemory.channel3.FRFCFS-WQF.channel3.rank0.bank7.subarray0.worstCaseWrite 0
i0.defaultMemory.channel3.FRFCFS-WQF.channel3.rank0.bank7.subarray0.num00Writes 0
i0.defaultMemory.channel3.FRFCFS-WQF.channel3.rank0.bank7.subarray0.num01Writes 0
i0.defaultMemory.channel3.FRFCFS-WQF.channel3.rank0.bank7.subarray0.num10Writes 0
i0.defaultMemory.channel3.FRFCFS-WQF.channel3.rank0.bank7.subarray0.num11Writes 0
i0.defaultMemory.channel3.FRFCFS-WQF.channel3.rank0.bank7.subarray0.averageWriteTime 60
i0.defaultMemory.channel3.FRFCFS-WQF.channel3.rank0.bank7.subarray0.measuredWriteTimes 228163
i0.defaultMemory.channel3.FRFCFS-WQF.channel3.rank0.bank7.subarray0.mlcTimingHisto {}
i0.defaultMemory.channel3.FRFCFS-WQF.channel3.rank0.bank7.subarray0.cancelCountHisto {0: 228162}
i0.defaultMemory.channel3.FRFCFS-WQF.channel3.rank0.bank7.subarray0.wpPauseHisto {}
i0.defaultMemory.channel3.FRFCFS-WQF.channel3.rank0.bank7.subarray0.wpCancelHisto {}
i0.defaultMemory.channel3.FRFCFS-WQF.channel3.rank0.bank7.bankEnergy 9.5242e+06nJ
i0.defaultMemory.channel3.FRFCFS-WQF.channel3.rank0.bank7.activeEnergy 3255.06nJ
i0.defaultMemory.channel3.FRFCFS-WQF.channel3.rank0.bank7.burstEnergy 384854nJ
i0.defaultMemory.channel3.FRFCFS-WQF.channel3.rank0.bank7.refreshEnergy 0nJ
i0.defaultMemory.channel3.FRFCFS-WQF.channel3.rank0.bank7.bankPower 2.53598e+07W
i0.defaultMemory.channel3.FRFCFS-WQF.channel3.rank0.bank7.activePower 8667.17W
i0.defaultMemory.channel3.FRFCFS-WQF.channel3.rank0.bank7.burstPower 1.02474e+06W
i0.defaultMemory.channel3.FRFCFS-WQF.channel3.rank0.bank7.refreshPower 0W
i0.defaultMemory.channel3.FRFCFS-WQF.channel3.rank0.bank7.bandwidth 456.413MB/s
i0.defaultMemory.channel3.FRFCFS-WQF.channel3.rank0.bank7.dataCycles 2007724
i0.defaultMemory.channel3.FRFCFS-WQF.channel3.rank0.bank7.powerCycles 375562534
i0.defaultMemory.channel3.FRFCFS-WQF.channel3.rank0.bank7.utilization 0.00534591
i0.defaultMemory.channel3.FRFCFS-WQF.channel3.rank0.bank7.reads 273768
i0.defaultMemory.channel3.FRFCFS-WQF.channel3.rank0.bank7.writes 228163
i0.defaultMemory.channel3.FRFCFS-WQF.channel3.rank0.bank7.activates 40087
i0.defaultMemory.channel3.FRFCFS-WQF.channel3.rank0.bank7.precharges 40086
i0.defaultMemory.channel3.FRFCFS-WQF.channel3.rank0.bank7.refreshes 0
i0.defaultMemory.channel3.FRFCFS-WQF.channel3.rank0.bank7.activeCycles 373708807
i0.defaultMemory.channel3.FRFCFS-WQF.channel3.rank0.bank7.standbyCycles 1853727
i0.defaultMemory.channel3.FRFCFS-WQF.channel3.rank0.bank7.fastExitActiveCycles 0
i0.defaultMemory.channel3.FRFCFS-WQF.channel3.rank0.bank7.fastExitPrechargeCycles 0
i0.defaultMemory.channel3.FRFCFS-WQF.channel3.rank0.bank7.slowExitPrechargeCycles 0
i0.defaultMemory.channel3.FRFCFS-WQF.channel3.rank0.bank7.actWaits 0
i0.defaultMemory.channel3.FRFCFS-WQF.channel3.rank0.bank7.actWaitTotal 0
i0.defaultMemory.channel3.FRFCFS-WQF.channel3.rank0.bank7.actWaitAverage -nan
i0.defaultMemory.channel3.FRFCFS-WQF.channel3.rank0.bank7.averageEndurance 0
i0.defaultMemory.channel3.FRFCFS-WQF.channel3.rank0.bank7.worstCaseEndurance 18446744073709551615
i0.defaultMemory.channel3.FRFCFS-WQF.channel3.rank0.totalEnergy 1.13544e+08nJ
i0.defaultMemory.channel3.FRFCFS-WQF.channel3.rank0.backgroundEnergy 3.38344e+07nJ
i0.defaultMemory.channel3.FRFCFS-WQF.channel3.rank0.activateEnergy 26075.8nJ
i0.defaultMemory.channel3.FRFCFS-WQF.channel3.rank0.burstEnergy 3.09474e+06nJ
i0.defaultMemory.channel3.FRFCFS-WQF.channel3.rank0.refreshEnergy 0nJ
i0.defaultMemory.channel3.FRFCFS-WQF.channel3.rank0.totalPower 0.0656326W
i0.defaultMemory.channel3.FRFCFS-WQF.channel3.rank0.backgroundPower 0.06009W
i0.defaultMemory.channel3.FRFCFS-WQF.channel3.rank0.activatePower 4.63106e-05W
i0.defaultMemory.channel3.FRFCFS-WQF.channel3.rank0.burstPower 0.00549627W
i0.defaultMemory.channel3.FRFCFS-WQF.channel3.rank0.refreshPower 0W
i0.defaultMemory.channel3.FRFCFS-WQF.channel3.rank0.reads 2203793
i0.defaultMemory.channel3.FRFCFS-WQF.channel3.rank0.writes 1834736
i0.defaultMemory.channel3.FRFCFS-WQF.channel3.rank0.activeCycles 375562534
i0.defaultMemory.channel3.FRFCFS-WQF.channel3.rank0.standbyCycles 0
i0.defaultMemory.channel3.FRFCFS-WQF.channel3.rank0.fastExitActiveCycles 0
i0.defaultMemory.channel3.FRFCFS-WQF.channel3.rank0.fastExitPrechargeCycles 0
i0.defaultMemory.channel3.FRFCFS-WQF.channel3.rank0.slowExitCycles 0
i0.defaultMemory.channel3.FRFCFS-WQF.channel3.rank0.actWaits 49680
i0.defaultMemory.channel3.FRFCFS-WQF.channel3.rank0.actWaitTotal 130494
i0.defaultMemory.channel3.FRFCFS-WQF.channel3.rank0.actWaitAverage 2.62669
i0.defaultMemory.channel3.FRFCFS-WQF.channel3.rank0.rrdWaits 49680
i0.defaultMemory.channel3.FRFCFS-WQF.channel3.rank0.rrdWaitTotal 130494
i0.defaultMemory.channel3.FRFCFS-WQF.channel3.rank0.rrdWaitAverage 2.62669
i0.defaultMemory.channel3.FRFCFS-WQF.channel3.rank0.fawWaits 715
i0.defaultMemory.channel3.FRFCFS-WQF.channel3.rank0.fawWaitTotal 2792
i0.defaultMemory.channel3.FRFCFS-WQF.channel3.rank0.fawWaitAverage 3.9049
i0.defaultMemory.channel3.FRFCFS-WQF.mem_reads 2203793
i0.defaultMemory.channel3.FRFCFS-WQF.mem_writes 1834764
i0.defaultMemory.channel3.FRFCFS-WQF.rq_rb_hits 2046992
i0.defaultMemory.channel3.FRFCFS-WQF.rq_rb_miss 156801
i0.defaultMemory.channel3.FRFCFS-WQF.wq_rb_hits 1670407
i0.defaultMemory.channel3.FRFCFS-WQF.wq_rb_miss 164329
i0.defaultMemory.channel3.FRFCFS-WQF.total_drains 114670
i0.defaultMemory.channel3.FRFCFS-WQF.total_drain_writes 1834720
i0.defaultMemory.channel3.FRFCFS-WQF.average_writes_per_drain 16
i0.defaultMemory.channel3.FRFCFS-WQF.minimum_drain_writes 16
i0.defaultMemory.channel3.FRFCFS-WQF.maximum_drain_writes 16
i0.defaultMemory.channel3.FRFCFS-WQF.total_drain_cycles 59595120
i0.defaultMemory.channel3.FRFCFS-WQF.average_drain_cycles 519.71
i0.defaultMemory.channel3.FRFCFS-WQF.minimum_drain_cycles 65
i0.defaultMemory.channel3.FRFCFS-WQF.maximum_drain_cycles 1092
i0.defaultMemory.channel3.FRFCFS-WQF.total_non_drain_cycles 374808296
i0.defaultMemory.channel3.FRFCFS-WQF.average_drain_spacing 3268.58
i0.defaultMemory.channel3.FRFCFS-WQF.minimum_drain_spacing 502
i0.defaultMemory.channel3.FRFCFS-WQF.maximum_drain_spacing 384102
i0.defaultMemory.channel3.FRFCFS-WQF.total_read_cycles 315213176
i0.defaultMemory.channel3.FRFCFS-WQF.average_read_spacing 2748.87
i0.defaultMemory.channel3.FRFCFS-WQF.minimum_read_spacing 190
i0.defaultMemory.channel3.FRFCFS-WQF.maximum_read_spacing 383935
i0.defaultMemory.channel3.FRFCFS-WQF.total_readqueue_size 27
i0.defaultMemory.channel3.FRFCFS-WQF.average_predrain_readqueue_size 0.000235458
i0.defaultMemory.channel3.FRFCFS-WQF.minimum_predrain_readqueue_size 0
i0.defaultMemory.channel3.FRFCFS-WQF.maximum_predrain_readqueue_size 1
i0.defaultMemory.channel3.FRFCFS-WQF.total_reads_during_drain 85976
i0.defaultMemory.channel3.FRFCFS-WQF.average_reads_during_drain 0.749769
i0.defaultMemory.channel3.FRFCFS-WQF.minimum_reads_during_drain 0
i0.defaultMemory.channel3.FRFCFS-WQF.maximum_reads_during_drain 3
i0.defaultMemory.channel3.FRFCFS-WQF.starvation_precharges 256412
i0.defaultMemory.channel3.FRFCFS-WQF.averageLatency 72.2002
i0.defaultMemory.channel3.FRFCFS-WQF.averageQueueLatency 1905.85
i0.defaultMemory.channel3.FRFCFS-WQF.averageTotalLatency 1978.05
i0.defaultMemory.channel3.FRFCFS-WQF.measuredLatencies 4038529
i0.defaultMemory.channel3.FRFCFS-WQF.measuredQueueLatencies 4038529
i0.defaultMemory.channel3.FRFCFS-WQF.measuredTotalLatencies 4038529
i0.defaultMemory.channel3.FRFCFS-WQF.simulation_cycles 375562534
i0.defaultMemory.channel3.FRFCFS-WQF.wakeupCount 6735958
i0.defaultMemory.totalReadRequests 6889700
i0.defaultMemory.totalWriteRequests 6726273
i0.defaultMemory.successfulPrefetches 0
i0.defaultMemory.unsuccessfulPrefetches 0
]0;root@server2: /home/server2/stx-gem/gem5-11688root@server2:/home/server2/stx-gem/gem5-11688# exit

è„šæœ¬å®Œæˆï¼ŒäºŽ 2019å¹´07æœˆ17æ—¥ æ˜ŸæœŸä¸‰ 15æ—¶38åˆ†24ç§’
